*SPEF "ieee 1481-1999"
*DESIGN "digital"
*DATE "21:24:03 Monday July 28, 2025"
*VENDOR "The OpenROAD Project"
*PROGRAM "OpenROAD"
*VERSION "d423155d69de7f683a23f6916ead418a615ad4ad"
*DESIGN_FLOW "NAME_SCOPE LOCAL" "PIN_CAP NONE"
*DIVIDER /
*DELIMITER :
*BUS_DELIMITER []
*T_UNIT 1 NS
*C_UNIT 1 PF
*R_UNIT 1 OHM
*L_UNIT 1 HENRY

*NAME_MAP
*1 GND
*2 VDD
*5 clk
*6 clr
*7 comp_clk
*8 comp_n
*9 comp_p
*10 done
*11 obit1
*12 obit10
*13 obit2
*14 obit3
*15 obit4
*16 obit5
*17 obit6
*18 obit7
*19 obit8
*20 obit9
*21 sw_n1
*22 sw_n2
*23 sw_n3
*24 sw_n4
*25 sw_n5
*26 sw_n6
*27 sw_n7
*28 sw_n8
*29 sw_n_sp1
*30 sw_n_sp2
*31 sw_n_sp3
*32 sw_n_sp4
*33 sw_n_sp5
*34 sw_n_sp6
*35 sw_n_sp7
*36 sw_n_sp8
*37 sw_n_sp9
*38 sw_p1
*39 sw_p2
*40 sw_p3
*41 sw_p4
*42 sw_p5
*43 sw_p6
*44 sw_p7
*45 sw_p8
*46 sw_p_sp1
*47 sw_p_sp2
*48 sw_p_sp3
*49 sw_p_sp4
*50 sw_p_sp5
*51 sw_p_sp6
*52 sw_p_sp7
*53 sw_p_sp8
*54 sw_p_sp9
*55 sw_sample
*56 controller_clk
*57 net1
*58 net10
*59 net11
*60 net12
*61 net13
*62 net14
*63 net15
*64 net16
*65 net17
*66 net18
*67 net19
*68 net2
*69 net20
*70 net21
*71 net22
*72 net23
*73 net24
*74 net25
*75 net26
*76 net27
*77 net28
*78 net29
*79 net3
*80 net30
*81 net31
*82 net32
*83 net33
*84 net34
*85 net35
*86 net36
*87 net37
*88 net38
*89 net39
*90 net4
*91 net40
*92 net41
*93 net42
*94 net43
*95 net44
*96 net45
*97 net46
*98 net47
*99 net48
*100 net49
*101 net5
*102 net50
*103 net51
*104 net52
*105 net53
*106 net54
*107 net55
*108 net56
*109 net57
*110 net58
*111 net59
*112 net6
*113 net60
*114 net61
*115 net62
*116 net63
*117 net64
*118 net65
*119 net66
*120 net67
*121 net68
*122 net69
*123 net7
*124 net70
*125 net71
*126 net8
*127 net9
*128 x1/cycle0
*129 x1/cycle1
*130 x1/cycle10
*131 x1/cycle11
*132 x1/cycle12
*133 x1/cycle13
*134 x1/cycle14
*135 x1/cycle15
*136 x1/cycle2
*137 x1/cycle3
*138 x1/cycle4
*139 x1/cycle5
*140 x1/cycle6
*141 x1/cycle7
*142 x1/cycle8
*143 x1/cycle9
*144 x1/net1
*145 x1/net2
*146 x1/net3
*147 x1/net4
*148 x1/net5
*149 x1/net6
*150 x1/raw_bit1
*151 x1/raw_bit10
*152 x1/raw_bit11
*153 x1/raw_bit12
*154 x1/raw_bit13
*155 x1/raw_bit2
*156 x1/raw_bit3
*157 x1/raw_bit4
*158 x1/raw_bit5
*159 x1/raw_bit6
*160 x1/raw_bit7
*161 x1/raw_bit8
*162 x1/raw_bit9
*163 x1/raw_bit_clr
*164 x1/vcmp_buf
*165 x1/x1/net1
*166 x1/x1/net10
*167 x1/x1/net11
*168 x1/x1/net12
*169 x1/x1/net13
*170 x1/x1/net14
*171 x1/x1/net15
*172 x1/x1/net16
*173 x1/x1/net2
*174 x1/x1/net3
*175 x1/x1/net4
*176 x1/x1/net5
*177 x1/x1/net6
*178 x1/x1/net7
*179 x1/x1/net8
*180 x1/x1/net9
*181 x1/x2/net1
*182 x1/x2/net10
*183 x1/x2/net11
*184 x1/x2/net12
*185 x1/x2/net13
*186 x1/x2/net14
*187 x1/x2/net15
*188 x1/x2/net16
*189 x1/x2/net17
*190 x1/x2/net18
*191 x1/x2/net19
*192 x1/x2/net2
*193 x1/x2/net20
*194 x1/x2/net21
*195 x1/x2/net22
*196 x1/x2/net23
*197 x1/x2/net24
*198 x1/x2/net25
*199 x1/x2/net26
*200 x1/x2/net27
*201 x1/x2/net28
*202 x1/x2/net29
*203 x1/x2/net3
*204 x1/x2/net30
*205 x1/x2/net31
*206 x1/x2/net32
*207 x1/x2/net33
*208 x1/x2/net34
*209 x1/x2/net35
*210 x1/x2/net36
*211 x1/x2/net37
*212 x1/x2/net38
*213 x1/x2/net39
*214 x1/x2/net4
*215 x1/x2/net40
*216 x1/x2/net41
*217 x1/x2/net42
*218 x1/x2/net43
*219 x1/x2/net44
*220 x1/x2/net45
*221 x1/x2/net46
*222 x1/x2/net47
*223 x1/x2/net48
*224 x1/x2/net49
*225 x1/x2/net5
*226 x1/x2/net50
*227 x1/x2/net51
*228 x1/x2/net52
*229 x1/x2/net53
*230 x1/x2/net54
*231 x1/x2/net55
*232 x1/x2/net56
*233 x1/x2/net57
*234 x1/x2/net58
*235 x1/x2/net59
*236 x1/x2/net6
*237 x1/x2/net60
*238 x1/x2/net61
*239 x1/x2/net62
*240 x1/x2/net63
*241 x1/x2/net64
*242 x1/x2/net65
*243 x1/x2/net66
*244 x1/x2/net67
*245 x1/x2/net68
*246 x1/x2/net69
*247 x1/x2/net7
*248 x1/x2/net70
*249 x1/x2/net71
*250 x1/x2/net72
*251 x1/x2/net73
*252 x1/x2/net74
*253 x1/x2/net75
*254 x1/x2/net76
*255 x1/x2/net77
*256 x1/x2/net78
*257 x1/x2/net79
*258 x1/x2/net8
*259 x1/x2/net80
*260 x1/x2/net81
*261 x1/x2/net9
*262 x1/x2/x119/net1
*263 x1/x2/x16/net1
*264 x1/x2/x17/net1
*265 x1/x2/x35/net1
*266 x1/x2/x36/net1
*267 x1/x2/x39/net1
*268 x1/x2/x62/net1
*269 x1/x2/x63/net1
*270 x1/x3/count_net
*271 x1/x3/johnson_counter_loop
*272 x1/x3/net1
*273 x1/x3/net10
*274 x1/x3/net11
*275 x1/x3/net12
*276 x1/x3/net13
*277 x1/x3/net14
*278 x1/x3/net15
*279 x1/x3/net16
*280 x1/x3/net17
*281 x1/x3/net18
*282 x1/x3/net19
*283 x1/x3/net2
*284 x1/x3/net20
*285 x1/x3/net21
*286 x1/x3/net22
*287 x1/x3/net23
*288 x1/x3/net24
*289 x1/x3/net3
*290 x1/x3/net4
*291 x1/x3/net5
*292 x1/x3/net6
*293 x1/x3/net7
*294 x1/x3/net8
*295 x1/x3/net9
*296 x1/x4/net1
*297 x1/x4/net10
*298 x1/x4/net11
*299 x1/x4/net12
*300 x1/x4/net13
*301 x1/x4/net14
*302 x1/x4/net15
*303 x1/x4/net16
*304 x1/x4/net17
*305 x1/x4/net18
*306 x1/x4/net19
*307 x1/x4/net2
*308 x1/x4/net20
*309 x1/x4/net21
*310 x1/x4/net22
*311 x1/x4/net23
*312 x1/x4/net24
*313 x1/x4/net25
*314 x1/x4/net26
*315 x1/x4/net27
*316 x1/x4/net28
*317 x1/x4/net29
*318 x1/x4/net3
*319 x1/x4/net30
*320 x1/x4/net31
*321 x1/x4/net32
*322 x1/x4/net33
*323 x1/x4/net34
*324 x1/x4/net35
*325 x1/x4/net36
*326 x1/x4/net37
*327 x1/x4/net38
*328 x1/x4/net39
*329 x1/x4/net4
*330 x1/x4/net40
*331 x1/x4/net41
*332 x1/x4/net42
*333 x1/x4/net43
*334 x1/x4/net44
*335 x1/x4/net45
*336 x1/x4/net46
*337 x1/x4/net47
*338 x1/x4/net48
*339 x1/x4/net49
*340 x1/x4/net5
*341 x1/x4/net50
*342 x1/x4/net51
*343 x1/x4/net52
*344 x1/x4/net53
*345 x1/x4/net54
*346 x1/x4/net55
*347 x1/x4/net56
*348 x1/x4/net57
*349 x1/x4/net58
*350 x1/x4/net59
*351 x1/x4/net6
*352 x1/x4/net60
*353 x1/x4/net61
*354 x1/x4/net7
*355 x1/x4/net8
*356 x1/x4/net9
*357 x1/x4/reset_b
*358 x2/net1
*359 x2/net10
*360 x2/net11
*361 x2/net2
*362 x2/net3
*363 x2/net4
*364 x2/net5
*365 x2/net6
*366 x2/net7
*367 x2/net8
*368 x2/net9
*369 FILLER_0_0_106
*370 FILLER_0_0_111
*371 FILLER_0_0_113
*372 FILLER_0_0_125
*373 FILLER_0_0_13
*374 FILLER_0_0_133
*375 FILLER_0_0_139
*376 FILLER_0_0_141
*377 FILLER_0_0_153
*378 FILLER_0_0_161
*379 FILLER_0_0_167
*380 FILLER_0_0_169
*381 FILLER_0_0_181
*382 FILLER_0_0_189
*383 FILLER_0_0_195
*384 FILLER_0_0_197
*385 FILLER_0_0_21
*386 FILLER_0_0_27
*387 FILLER_0_0_29
*388 FILLER_0_0_57
*389 FILLER_0_0_69
*390 FILLER_0_0_77
*391 FILLER_0_0_83
*392 FILLER_0_10_11
*393 FILLER_0_10_138
*394 FILLER_0_10_141
*395 FILLER_0_10_194
*396 FILLER_0_10_197
*397 FILLER_0_10_209
*398 FILLER_0_10_3
*399 FILLER_0_10_37
*400 FILLER_0_10_47
*401 FILLER_0_10_55
*402 FILLER_0_10_80
*403 FILLER_0_10_91
*404 FILLER_0_10_96
*405 FILLER_0_11_104
*406 FILLER_0_11_113
*407 FILLER_0_11_119
*408 FILLER_0_11_123
*409 FILLER_0_11_134
*410 FILLER_0_11_140
*411 FILLER_0_11_147
*412 FILLER_0_11_15
*413 FILLER_0_11_159
*414 FILLER_0_11_163
*415 FILLER_0_11_167
*416 FILLER_0_11_169
*417 FILLER_0_11_178
*418 FILLER_0_11_188
*419 FILLER_0_11_27
*420 FILLER_0_11_3
*421 FILLER_0_11_39
*422 FILLER_0_11_51
*423 FILLER_0_11_55
*424 FILLER_0_11_57
*425 FILLER_0_11_65
*426 FILLER_0_11_70
*427 FILLER_0_11_92
*428 FILLER_0_12_109
*429 FILLER_0_12_121
*430 FILLER_0_12_133
*431 FILLER_0_12_139
*432 FILLER_0_12_141
*433 FILLER_0_12_15
*434 FILLER_0_12_153
*435 FILLER_0_12_165
*436 FILLER_0_12_177
*437 FILLER_0_12_189
*438 FILLER_0_12_195
*439 FILLER_0_12_197
*440 FILLER_0_12_205
*441 FILLER_0_12_27
*442 FILLER_0_12_29
*443 FILLER_0_12_3
*444 FILLER_0_12_50
*445 FILLER_0_12_58
*446 FILLER_0_12_63
*447 FILLER_0_12_71
*448 FILLER_0_12_83
*449 FILLER_0_12_85
*450 FILLER_0_12_97
*451 FILLER_0_13_105
*452 FILLER_0_13_111
*453 FILLER_0_13_113
*454 FILLER_0_13_121
*455 FILLER_0_13_126
*456 FILLER_0_13_130
*457 FILLER_0_13_134
*458 FILLER_0_13_146
*459 FILLER_0_13_158
*460 FILLER_0_13_166
*461 FILLER_0_13_169
*462 FILLER_0_13_181
*463 FILLER_0_13_193
*464 FILLER_0_13_205
*465 FILLER_0_13_209
*466 FILLER_0_13_25
*467 FILLER_0_13_33
*468 FILLER_0_13_57
*469 FILLER_0_13_69
*470 FILLER_0_13_81
*471 FILLER_0_13_93
*472 FILLER_0_14_104
*473 FILLER_0_14_146
*474 FILLER_0_14_15
*475 FILLER_0_14_168
*476 FILLER_0_14_190
*477 FILLER_0_14_197
*478 FILLER_0_14_205
*479 FILLER_0_14_27
*480 FILLER_0_14_29
*481 FILLER_0_14_43
*482 FILLER_0_14_55
*483 FILLER_0_14_67
*484 FILLER_0_14_71
*485 FILLER_0_14_75
*486 FILLER_0_14_83
*487 FILLER_0_14_85
*488 FILLER_0_14_94
*489 FILLER_0_14_98
*490 FILLER_0_15_108
*491 FILLER_0_15_11
*492 FILLER_0_15_117
*493 FILLER_0_15_129
*494 FILLER_0_15_137
*495 FILLER_0_15_141
*496 FILLER_0_15_15
*497 FILLER_0_15_153
*498 FILLER_0_15_165
*499 FILLER_0_15_169
*500 FILLER_0_15_173
*501 FILLER_0_15_27
*502 FILLER_0_15_3
*503 FILLER_0_15_39
*504 FILLER_0_15_51
*505 FILLER_0_15_55
*506 FILLER_0_16_102
*507 FILLER_0_16_114
*508 FILLER_0_16_126
*509 FILLER_0_16_138
*510 FILLER_0_16_146
*511 FILLER_0_16_15
*512 FILLER_0_16_154
*513 FILLER_0_16_175
*514 FILLER_0_16_187
*515 FILLER_0_16_195
*516 FILLER_0_16_197
*517 FILLER_0_16_20
*518 FILLER_0_16_209
*519 FILLER_0_16_29
*520 FILLER_0_16_3
*521 FILLER_0_16_41
*522 FILLER_0_16_49
*523 FILLER_0_16_75
*524 FILLER_0_16_83
*525 FILLER_0_16_85
*526 FILLER_0_16_91
*527 FILLER_0_16_97
*528 FILLER_0_17_105
*529 FILLER_0_17_111
*530 FILLER_0_17_113
*531 FILLER_0_17_120
*532 FILLER_0_17_128
*533 FILLER_0_17_13
*534 FILLER_0_17_151
*535 FILLER_0_17_163
*536 FILLER_0_17_167
*537 FILLER_0_17_169
*538 FILLER_0_17_181
*539 FILLER_0_17_189
*540 FILLER_0_17_23
*541 FILLER_0_17_29
*542 FILLER_0_17_3
*543 FILLER_0_17_34
*544 FILLER_0_17_46
*545 FILLER_0_17_52
*546 FILLER_0_17_57
*547 FILLER_0_17_69
*548 FILLER_0_17_81
*549 FILLER_0_17_93
*550 FILLER_0_18_109
*551 FILLER_0_18_135
*552 FILLER_0_18_139
*553 FILLER_0_18_141
*554 FILLER_0_18_15
*555 FILLER_0_18_167
*556 FILLER_0_18_191
*557 FILLER_0_18_195
*558 FILLER_0_18_197
*559 FILLER_0_18_205
*560 FILLER_0_18_27
*561 FILLER_0_18_29
*562 FILLER_0_18_3
*563 FILLER_0_18_43
*564 FILLER_0_18_58
*565 FILLER_0_18_70
*566 FILLER_0_18_82
*567 FILLER_0_18_85
*568 FILLER_0_18_97
*569 FILLER_0_19_104
*570 FILLER_0_19_108
*571 FILLER_0_19_113
*572 FILLER_0_19_122
*573 FILLER_0_19_134
*574 FILLER_0_19_146
*575 FILLER_0_19_15
*576 FILLER_0_19_158
*577 FILLER_0_19_166
*578 FILLER_0_19_189
*579 FILLER_0_19_201
*580 FILLER_0_19_209
*581 FILLER_0_19_27
*582 FILLER_0_19_3
*583 FILLER_0_19_45
*584 FILLER_0_19_53
*585 FILLER_0_19_57
*586 FILLER_0_19_61
*587 FILLER_0_19_65
*588 FILLER_0_19_76
*589 FILLER_0_1_110
*590 FILLER_0_1_113
*591 FILLER_0_1_139
*592 FILLER_0_1_151
*593 FILLER_0_1_163
*594 FILLER_0_1_167
*595 FILLER_0_1_169
*596 FILLER_0_1_194
*597 FILLER_0_1_44
*598 FILLER_0_1_57
*599 FILLER_0_1_7
*600 FILLER_0_1_80
*601 FILLER_0_1_88
*602 FILLER_0_20_131
*603 FILLER_0_20_139
*604 FILLER_0_20_16
*605 FILLER_0_20_161
*606 FILLER_0_20_173
*607 FILLER_0_20_187
*608 FILLER_0_20_195
*609 FILLER_0_20_197
*610 FILLER_0_20_205
*611 FILLER_0_20_29
*612 FILLER_0_20_3
*613 FILLER_0_20_41
*614 FILLER_0_20_45
*615 FILLER_0_20_50
*616 FILLER_0_20_62
*617 FILLER_0_20_74
*618 FILLER_0_20_82
*619 FILLER_0_20_85
*620 FILLER_0_21_105
*621 FILLER_0_21_111
*622 FILLER_0_21_113
*623 FILLER_0_21_125
*624 FILLER_0_21_131
*625 FILLER_0_21_135
*626 FILLER_0_21_144
*627 FILLER_0_21_156
*628 FILLER_0_21_169
*629 FILLER_0_21_181
*630 FILLER_0_21_189
*631 FILLER_0_21_32
*632 FILLER_0_21_44
*633 FILLER_0_21_57
*634 FILLER_0_21_6
*635 FILLER_0_21_69
*636 FILLER_0_21_93
*637 FILLER_0_22_109
*638 FILLER_0_22_121
*639 FILLER_0_22_133
*640 FILLER_0_22_139
*641 FILLER_0_22_15
*642 FILLER_0_22_161
*643 FILLER_0_22_189
*644 FILLER_0_22_195
*645 FILLER_0_22_197
*646 FILLER_0_22_209
*647 FILLER_0_22_27
*648 FILLER_0_22_29
*649 FILLER_0_22_3
*650 FILLER_0_22_41
*651 FILLER_0_22_45
*652 FILLER_0_22_57
*653 FILLER_0_22_69
*654 FILLER_0_22_81
*655 FILLER_0_22_85
*656 FILLER_0_22_97
*657 FILLER_0_23_11
*658 FILLER_0_23_110
*659 FILLER_0_23_120
*660 FILLER_0_23_128
*661 FILLER_0_23_149
*662 FILLER_0_23_161
*663 FILLER_0_23_167
*664 FILLER_0_23_169
*665 FILLER_0_23_173
*666 FILLER_0_23_19
*667 FILLER_0_23_3
*668 FILLER_0_23_42
*669 FILLER_0_23_50
*670 FILLER_0_23_7
*671 FILLER_0_23_80
*672 FILLER_0_23_85
*673 FILLER_0_23_89
*674 FILLER_0_24_105
*675 FILLER_0_24_137
*676 FILLER_0_24_144
*677 FILLER_0_24_190
*678 FILLER_0_24_197
*679 FILLER_0_24_32
*680 FILLER_0_24_40
*681 FILLER_0_24_75
*682 FILLER_0_24_82
*683 FILLER_0_25_108
*684 FILLER_0_25_113
*685 FILLER_0_25_119
*686 FILLER_0_25_123
*687 FILLER_0_25_135
*688 FILLER_0_25_147
*689 FILLER_0_25_15
*690 FILLER_0_25_159
*691 FILLER_0_25_167
*692 FILLER_0_25_169
*693 FILLER_0_25_181
*694 FILLER_0_25_209
*695 FILLER_0_25_27
*696 FILLER_0_25_3
*697 FILLER_0_25_39
*698 FILLER_0_25_51
*699 FILLER_0_25_55
*700 FILLER_0_25_57
*701 FILLER_0_25_62
*702 FILLER_0_25_85
*703 FILLER_0_25_96
*704 FILLER_0_26_106
*705 FILLER_0_26_118
*706 FILLER_0_26_130
*707 FILLER_0_26_138
*708 FILLER_0_26_141
*709 FILLER_0_26_15
*710 FILLER_0_26_153
*711 FILLER_0_26_178
*712 FILLER_0_26_19
*713 FILLER_0_26_190
*714 FILLER_0_26_197
*715 FILLER_0_26_201
*716 FILLER_0_26_208
*717 FILLER_0_26_25
*718 FILLER_0_26_29
*719 FILLER_0_26_3
*720 FILLER_0_26_33
*721 FILLER_0_26_37
*722 FILLER_0_26_43
*723 FILLER_0_26_55
*724 FILLER_0_26_67
*725 FILLER_0_26_78
*726 FILLER_0_26_85
*727 FILLER_0_26_97
*728 FILLER_0_27_100
*729 FILLER_0_27_106
*730 FILLER_0_27_11
*731 FILLER_0_27_117
*732 FILLER_0_27_129
*733 FILLER_0_27_135
*734 FILLER_0_27_139
*735 FILLER_0_27_151
*736 FILLER_0_27_159
*737 FILLER_0_27_163
*738 FILLER_0_27_167
*739 FILLER_0_27_169
*740 FILLER_0_27_173
*741 FILLER_0_27_185
*742 FILLER_0_27_189
*743 FILLER_0_27_19
*744 FILLER_0_27_27
*745 FILLER_0_27_3
*746 FILLER_0_27_39
*747 FILLER_0_27_51
*748 FILLER_0_27_55
*749 FILLER_0_27_57
*750 FILLER_0_27_69
*751 FILLER_0_27_7
*752 FILLER_0_27_75
*753 FILLER_0_28_109
*754 FILLER_0_28_161
*755 FILLER_0_28_173
*756 FILLER_0_28_185
*757 FILLER_0_28_189
*758 FILLER_0_28_195
*759 FILLER_0_28_205
*760 FILLER_0_28_29
*761 FILLER_0_28_3
*762 FILLER_0_28_41
*763 FILLER_0_28_53
*764 FILLER_0_28_74
*765 FILLER_0_28_82
*766 FILLER_0_28_85
*767 FILLER_0_28_97
*768 FILLER_0_29_109
*769 FILLER_0_29_113
*770 FILLER_0_29_125
*771 FILLER_0_29_137
*772 FILLER_0_29_143
*773 FILLER_0_29_147
*774 FILLER_0_29_15
*775 FILLER_0_29_163
*776 FILLER_0_29_167
*777 FILLER_0_29_169
*778 FILLER_0_29_181
*779 FILLER_0_29_202
*780 FILLER_0_29_27
*781 FILLER_0_29_3
*782 FILLER_0_29_31
*783 FILLER_0_29_52
*784 FILLER_0_29_57
*785 FILLER_0_29_63
*786 FILLER_0_29_84
*787 FILLER_0_29_88
*788 FILLER_0_2_125
*789 FILLER_0_2_137
*790 FILLER_0_2_141
*791 FILLER_0_2_153
*792 FILLER_0_2_177
*793 FILLER_0_2_189
*794 FILLER_0_2_195
*795 FILLER_0_2_197
*796 FILLER_0_2_205
*797 FILLER_0_2_23
*798 FILLER_0_2_27
*799 FILLER_0_2_29
*800 FILLER_0_2_41
*801 FILLER_0_2_62
*802 FILLER_0_2_70
*803 FILLER_0_2_78
*804 FILLER_0_2_85
*805 FILLER_0_2_97
*806 FILLER_0_30_11
*807 FILLER_0_30_120
*808 FILLER_0_30_132
*809 FILLER_0_30_141
*810 FILLER_0_30_153
*811 FILLER_0_30_165
*812 FILLER_0_30_170
*813 FILLER_0_30_176
*814 FILLER_0_30_182
*815 FILLER_0_30_194
*816 FILLER_0_30_197
*817 FILLER_0_30_205
*818 FILLER_0_30_23
*819 FILLER_0_30_27
*820 FILLER_0_30_29
*821 FILLER_0_30_3
*822 FILLER_0_30_41
*823 FILLER_0_30_64
*824 FILLER_0_30_7
*825 FILLER_0_30_76
*826 FILLER_0_30_85
*827 FILLER_0_30_97
*828 FILLER_0_31_109
*829 FILLER_0_31_133
*830 FILLER_0_31_145
*831 FILLER_0_31_157
*832 FILLER_0_31_165
*833 FILLER_0_31_169
*834 FILLER_0_31_181
*835 FILLER_0_31_203
*836 FILLER_0_31_209
*837 FILLER_0_31_23
*838 FILLER_0_31_46
*839 FILLER_0_31_54
*840 FILLER_0_31_57
*841 FILLER_0_31_69
*842 FILLER_0_31_97
*843 FILLER_0_32_100
*844 FILLER_0_32_112
*845 FILLER_0_32_141
*846 FILLER_0_32_15
*847 FILLER_0_32_153
*848 FILLER_0_32_178
*849 FILLER_0_32_187
*850 FILLER_0_32_195
*851 FILLER_0_32_197
*852 FILLER_0_32_205
*853 FILLER_0_32_27
*854 FILLER_0_32_29
*855 FILLER_0_32_3
*856 FILLER_0_32_33
*857 FILLER_0_32_45
*858 FILLER_0_32_57
*859 FILLER_0_32_80
*860 FILLER_0_32_88
*861 FILLER_0_33_109
*862 FILLER_0_33_113
*863 FILLER_0_33_125
*864 FILLER_0_33_129
*865 FILLER_0_33_15
*866 FILLER_0_33_150
*867 FILLER_0_33_162
*868 FILLER_0_33_169
*869 FILLER_0_33_181
*870 FILLER_0_33_3
*871 FILLER_0_33_47
*872 FILLER_0_33_55
*873 FILLER_0_33_57
*874 FILLER_0_33_65
*875 FILLER_0_34_126
*876 FILLER_0_34_134
*877 FILLER_0_34_161
*878 FILLER_0_34_169
*879 FILLER_0_34_19
*880 FILLER_0_34_194
*881 FILLER_0_34_197
*882 FILLER_0_34_27
*883 FILLER_0_34_41
*884 FILLER_0_34_47
*885 FILLER_0_34_68
*886 FILLER_0_34_7
*887 FILLER_0_34_75
*888 FILLER_0_34_83
*889 FILLER_0_34_94
*890 FILLER_0_35_111
*891 FILLER_0_35_119
*892 FILLER_0_35_127
*893 FILLER_0_35_139
*894 FILLER_0_35_147
*895 FILLER_0_35_15
*896 FILLER_0_35_155
*897 FILLER_0_35_167
*898 FILLER_0_35_175
*899 FILLER_0_35_183
*900 FILLER_0_35_195
*901 FILLER_0_35_203
*902 FILLER_0_35_27
*903 FILLER_0_35_35
*904 FILLER_0_35_43
*905 FILLER_0_35_55
*906 FILLER_0_35_63
*907 FILLER_0_35_71
*908 FILLER_0_35_83
*909 FILLER_0_35_91
*910 FILLER_0_35_99
*911 FILLER_0_3_106
*912 FILLER_0_3_113
*913 FILLER_0_3_125
*914 FILLER_0_3_137
*915 FILLER_0_3_149
*916 FILLER_0_3_15
*917 FILLER_0_3_161
*918 FILLER_0_3_167
*919 FILLER_0_3_169
*920 FILLER_0_3_181
*921 FILLER_0_3_189
*922 FILLER_0_3_27
*923 FILLER_0_3_3
*924 FILLER_0_3_39
*925 FILLER_0_3_51
*926 FILLER_0_3_55
*927 FILLER_0_3_57
*928 FILLER_0_3_69
*929 FILLER_0_3_73
*930 FILLER_0_3_82
*931 FILLER_0_3_94
*932 FILLER_0_4_101
*933 FILLER_0_4_122
*934 FILLER_0_4_134
*935 FILLER_0_4_15
*936 FILLER_0_4_157
*937 FILLER_0_4_169
*938 FILLER_0_4_181
*939 FILLER_0_4_193
*940 FILLER_0_4_197
*941 FILLER_0_4_209
*942 FILLER_0_4_27
*943 FILLER_0_4_3
*944 FILLER_0_4_32
*945 FILLER_0_4_37
*946 FILLER_0_4_48
*947 FILLER_0_4_60
*948 FILLER_0_4_66
*949 FILLER_0_4_80
*950 FILLER_0_4_85
*951 FILLER_0_4_97
*952 FILLER_0_5_107
*953 FILLER_0_5_111
*954 FILLER_0_5_113
*955 FILLER_0_5_125
*956 FILLER_0_5_133
*957 FILLER_0_5_152
*958 FILLER_0_5_209
*959 FILLER_0_5_57
*960 FILLER_0_5_78
*961 FILLER_0_5_90
*962 FILLER_0_5_95
*963 FILLER_0_6_132
*964 FILLER_0_6_15
*965 FILLER_0_6_186
*966 FILLER_0_6_194
*967 FILLER_0_6_197
*968 FILLER_0_6_205
*969 FILLER_0_6_23
*970 FILLER_0_6_27
*971 FILLER_0_6_29
*972 FILLER_0_6_3
*973 FILLER_0_6_45
*974 FILLER_0_6_57
*975 FILLER_0_6_69
*976 FILLER_0_6_85
*977 FILLER_0_7_105
*978 FILLER_0_7_111
*979 FILLER_0_7_113
*980 FILLER_0_7_125
*981 FILLER_0_7_137
*982 FILLER_0_7_149
*983 FILLER_0_7_15
*984 FILLER_0_7_161
*985 FILLER_0_7_167
*986 FILLER_0_7_169
*987 FILLER_0_7_179
*988 FILLER_0_7_187
*989 FILLER_0_7_27
*990 FILLER_0_7_3
*991 FILLER_0_7_39
*992 FILLER_0_7_51
*993 FILLER_0_7_55
*994 FILLER_0_7_57
*995 FILLER_0_7_63
*996 FILLER_0_7_75
*997 FILLER_0_7_87
*998 FILLER_0_7_93
*999 FILLER_0_8_108
*1000 FILLER_0_8_11
*1001 FILLER_0_8_120
*1002 FILLER_0_8_132
*1003 FILLER_0_8_141
*1004 FILLER_0_8_147
*1005 FILLER_0_8_159
*1006 FILLER_0_8_171
*1007 FILLER_0_8_183
*1008 FILLER_0_8_195
*1009 FILLER_0_8_197
*1010 FILLER_0_8_20
*1011 FILLER_0_8_205
*1012 FILLER_0_8_29
*1013 FILLER_0_8_3
*1014 FILLER_0_8_37
*1015 FILLER_0_8_85
*1016 FILLER_0_8_97
*1017 FILLER_0_9_110
*1018 FILLER_0_9_113
*1019 FILLER_0_9_119
*1020 FILLER_0_9_124
*1021 FILLER_0_9_129
*1022 FILLER_0_9_151
*1023 FILLER_0_9_157
*1024 FILLER_0_9_165
*1025 FILLER_0_9_172
*1026 FILLER_0_9_184
*1027 FILLER_0_9_208
*1028 FILLER_0_9_44
*1029 FILLER_0_9_57
*1030 FILLER_0_9_65
*1031 FILLER_0_9_69
*1032 FILLER_0_9_81
*1033 PHY_EDGE_ROW_0_Left_36
*1034 PHY_EDGE_ROW_0_Right_0
*1035 PHY_EDGE_ROW_10_Left_46
*1036 PHY_EDGE_ROW_10_Right_10
*1037 PHY_EDGE_ROW_11_Left_47
*1038 PHY_EDGE_ROW_11_Right_11
*1039 PHY_EDGE_ROW_12_Left_48
*1040 PHY_EDGE_ROW_12_Right_12
*1041 PHY_EDGE_ROW_13_Left_49
*1042 PHY_EDGE_ROW_13_Right_13
*1043 PHY_EDGE_ROW_14_Left_50
*1044 PHY_EDGE_ROW_14_Right_14
*1045 PHY_EDGE_ROW_15_Left_51
*1046 PHY_EDGE_ROW_15_Right_15
*1047 PHY_EDGE_ROW_16_Left_52
*1048 PHY_EDGE_ROW_16_Right_16
*1049 PHY_EDGE_ROW_17_Left_53
*1050 PHY_EDGE_ROW_17_Right_17
*1051 PHY_EDGE_ROW_18_Left_54
*1052 PHY_EDGE_ROW_18_Right_18
*1053 PHY_EDGE_ROW_19_Left_55
*1054 PHY_EDGE_ROW_19_Right_19
*1055 PHY_EDGE_ROW_1_Left_37
*1056 PHY_EDGE_ROW_1_Right_1
*1057 PHY_EDGE_ROW_20_Left_56
*1058 PHY_EDGE_ROW_20_Right_20
*1059 PHY_EDGE_ROW_21_Left_57
*1060 PHY_EDGE_ROW_21_Right_21
*1061 PHY_EDGE_ROW_22_Left_58
*1062 PHY_EDGE_ROW_22_Right_22
*1063 PHY_EDGE_ROW_23_Left_59
*1064 PHY_EDGE_ROW_23_Right_23
*1065 PHY_EDGE_ROW_24_Left_60
*1066 PHY_EDGE_ROW_24_Right_24
*1067 PHY_EDGE_ROW_25_Left_61
*1068 PHY_EDGE_ROW_25_Right_25
*1069 PHY_EDGE_ROW_26_Left_62
*1070 PHY_EDGE_ROW_26_Right_26
*1071 PHY_EDGE_ROW_27_Left_63
*1072 PHY_EDGE_ROW_27_Right_27
*1073 PHY_EDGE_ROW_28_Left_64
*1074 PHY_EDGE_ROW_28_Right_28
*1075 PHY_EDGE_ROW_29_Left_65
*1076 PHY_EDGE_ROW_29_Right_29
*1077 PHY_EDGE_ROW_2_Left_38
*1078 PHY_EDGE_ROW_2_Right_2
*1079 PHY_EDGE_ROW_30_Left_66
*1080 PHY_EDGE_ROW_30_Right_30
*1081 PHY_EDGE_ROW_31_Left_67
*1082 PHY_EDGE_ROW_31_Right_31
*1083 PHY_EDGE_ROW_32_Left_68
*1084 PHY_EDGE_ROW_32_Right_32
*1085 PHY_EDGE_ROW_33_Left_69
*1086 PHY_EDGE_ROW_33_Right_33
*1087 PHY_EDGE_ROW_34_Left_70
*1088 PHY_EDGE_ROW_34_Right_34
*1089 PHY_EDGE_ROW_35_Left_71
*1090 PHY_EDGE_ROW_35_Right_35
*1091 PHY_EDGE_ROW_3_Left_39
*1092 PHY_EDGE_ROW_3_Right_3
*1093 PHY_EDGE_ROW_4_Left_40
*1094 PHY_EDGE_ROW_4_Right_4
*1095 PHY_EDGE_ROW_5_Left_41
*1096 PHY_EDGE_ROW_5_Right_5
*1097 PHY_EDGE_ROW_6_Left_42
*1098 PHY_EDGE_ROW_6_Right_6
*1099 PHY_EDGE_ROW_7_Left_43
*1100 PHY_EDGE_ROW_7_Right_7
*1101 PHY_EDGE_ROW_8_Left_44
*1102 PHY_EDGE_ROW_8_Right_8
*1103 PHY_EDGE_ROW_9_Left_45
*1104 PHY_EDGE_ROW_9_Right_9
*1105 TAP_TAPCELL_ROW_0_72
*1106 TAP_TAPCELL_ROW_0_73
*1107 TAP_TAPCELL_ROW_0_74
*1108 TAP_TAPCELL_ROW_0_75
*1109 TAP_TAPCELL_ROW_0_76
*1110 TAP_TAPCELL_ROW_0_77
*1111 TAP_TAPCELL_ROW_0_78
*1112 TAP_TAPCELL_ROW_10_110
*1113 TAP_TAPCELL_ROW_10_111
*1114 TAP_TAPCELL_ROW_10_112
*1115 TAP_TAPCELL_ROW_10_113
*1116 TAP_TAPCELL_ROW_11_114
*1117 TAP_TAPCELL_ROW_11_115
*1118 TAP_TAPCELL_ROW_11_116
*1119 TAP_TAPCELL_ROW_12_117
*1120 TAP_TAPCELL_ROW_12_118
*1121 TAP_TAPCELL_ROW_12_119
*1122 TAP_TAPCELL_ROW_12_120
*1123 TAP_TAPCELL_ROW_13_121
*1124 TAP_TAPCELL_ROW_13_122
*1125 TAP_TAPCELL_ROW_13_123
*1126 TAP_TAPCELL_ROW_14_124
*1127 TAP_TAPCELL_ROW_14_125
*1128 TAP_TAPCELL_ROW_14_126
*1129 TAP_TAPCELL_ROW_14_127
*1130 TAP_TAPCELL_ROW_15_128
*1131 TAP_TAPCELL_ROW_15_129
*1132 TAP_TAPCELL_ROW_15_130
*1133 TAP_TAPCELL_ROW_16_131
*1134 TAP_TAPCELL_ROW_16_132
*1135 TAP_TAPCELL_ROW_16_133
*1136 TAP_TAPCELL_ROW_16_134
*1137 TAP_TAPCELL_ROW_17_135
*1138 TAP_TAPCELL_ROW_17_136
*1139 TAP_TAPCELL_ROW_17_137
*1140 TAP_TAPCELL_ROW_18_138
*1141 TAP_TAPCELL_ROW_18_139
*1142 TAP_TAPCELL_ROW_18_140
*1143 TAP_TAPCELL_ROW_18_141
*1144 TAP_TAPCELL_ROW_19_142
*1145 TAP_TAPCELL_ROW_19_143
*1146 TAP_TAPCELL_ROW_19_144
*1147 TAP_TAPCELL_ROW_1_79
*1148 TAP_TAPCELL_ROW_1_80
*1149 TAP_TAPCELL_ROW_1_81
*1150 TAP_TAPCELL_ROW_20_145
*1151 TAP_TAPCELL_ROW_20_146
*1152 TAP_TAPCELL_ROW_20_147
*1153 TAP_TAPCELL_ROW_20_148
*1154 TAP_TAPCELL_ROW_21_149
*1155 TAP_TAPCELL_ROW_21_150
*1156 TAP_TAPCELL_ROW_21_151
*1157 TAP_TAPCELL_ROW_22_152
*1158 TAP_TAPCELL_ROW_22_153
*1159 TAP_TAPCELL_ROW_22_154
*1160 TAP_TAPCELL_ROW_22_155
*1161 TAP_TAPCELL_ROW_23_156
*1162 TAP_TAPCELL_ROW_23_157
*1163 TAP_TAPCELL_ROW_23_158
*1164 TAP_TAPCELL_ROW_24_159
*1165 TAP_TAPCELL_ROW_24_160
*1166 TAP_TAPCELL_ROW_24_161
*1167 TAP_TAPCELL_ROW_24_162
*1168 TAP_TAPCELL_ROW_25_163
*1169 TAP_TAPCELL_ROW_25_164
*1170 TAP_TAPCELL_ROW_25_165
*1171 TAP_TAPCELL_ROW_26_166
*1172 TAP_TAPCELL_ROW_26_167
*1173 TAP_TAPCELL_ROW_26_168
*1174 TAP_TAPCELL_ROW_26_169
*1175 TAP_TAPCELL_ROW_27_170
*1176 TAP_TAPCELL_ROW_27_171
*1177 TAP_TAPCELL_ROW_27_172
*1178 TAP_TAPCELL_ROW_28_173
*1179 TAP_TAPCELL_ROW_28_174
*1180 TAP_TAPCELL_ROW_28_175
*1181 TAP_TAPCELL_ROW_28_176
*1182 TAP_TAPCELL_ROW_29_177
*1183 TAP_TAPCELL_ROW_29_178
*1184 TAP_TAPCELL_ROW_29_179
*1185 TAP_TAPCELL_ROW_2_82
*1186 TAP_TAPCELL_ROW_2_83
*1187 TAP_TAPCELL_ROW_2_84
*1188 TAP_TAPCELL_ROW_2_85
*1189 TAP_TAPCELL_ROW_30_180
*1190 TAP_TAPCELL_ROW_30_181
*1191 TAP_TAPCELL_ROW_30_182
*1192 TAP_TAPCELL_ROW_30_183
*1193 TAP_TAPCELL_ROW_31_184
*1194 TAP_TAPCELL_ROW_31_185
*1195 TAP_TAPCELL_ROW_31_186
*1196 TAP_TAPCELL_ROW_32_187
*1197 TAP_TAPCELL_ROW_32_188
*1198 TAP_TAPCELL_ROW_32_189
*1199 TAP_TAPCELL_ROW_32_190
*1200 TAP_TAPCELL_ROW_33_191
*1201 TAP_TAPCELL_ROW_33_192
*1202 TAP_TAPCELL_ROW_33_193
*1203 TAP_TAPCELL_ROW_34_194
*1204 TAP_TAPCELL_ROW_34_195
*1205 TAP_TAPCELL_ROW_34_196
*1206 TAP_TAPCELL_ROW_34_197
*1207 TAP_TAPCELL_ROW_35_198
*1208 TAP_TAPCELL_ROW_35_199
*1209 TAP_TAPCELL_ROW_35_200
*1210 TAP_TAPCELL_ROW_35_201
*1211 TAP_TAPCELL_ROW_35_202
*1212 TAP_TAPCELL_ROW_35_203
*1213 TAP_TAPCELL_ROW_35_204
*1214 TAP_TAPCELL_ROW_3_86
*1215 TAP_TAPCELL_ROW_3_87
*1216 TAP_TAPCELL_ROW_3_88
*1217 TAP_TAPCELL_ROW_4_89
*1218 TAP_TAPCELL_ROW_4_90
*1219 TAP_TAPCELL_ROW_4_91
*1220 TAP_TAPCELL_ROW_4_92
*1221 TAP_TAPCELL_ROW_5_93
*1222 TAP_TAPCELL_ROW_5_94
*1223 TAP_TAPCELL_ROW_5_95
*1224 TAP_TAPCELL_ROW_6_96
*1225 TAP_TAPCELL_ROW_6_97
*1226 TAP_TAPCELL_ROW_6_98
*1227 TAP_TAPCELL_ROW_6_99
*1228 TAP_TAPCELL_ROW_7_100
*1229 TAP_TAPCELL_ROW_7_101
*1230 TAP_TAPCELL_ROW_7_102
*1231 TAP_TAPCELL_ROW_8_103
*1232 TAP_TAPCELL_ROW_8_104
*1233 TAP_TAPCELL_ROW_8_105
*1234 TAP_TAPCELL_ROW_8_106
*1235 TAP_TAPCELL_ROW_9_107
*1236 TAP_TAPCELL_ROW_9_108
*1237 TAP_TAPCELL_ROW_9_109
*1238 fanout52
*1239 fanout53
*1240 fanout54
*1241 fanout55
*1242 fanout56
*1243 fanout57
*1244 fanout58
*1245 fanout59
*1246 fanout60
*1247 fanout61
*1248 fanout62
*1249 fanout63
*1250 fanout64
*1251 fanout65
*1252 fanout66
*1253 fanout67
*1254 fanout68
*1255 fanout69
*1256 fanout70
*1257 fanout71
*1258 input1
*1259 input2
*1260 input3
*1261 input4
*1262 output10
*1263 output11
*1264 output12
*1265 output13
*1266 output14
*1267 output15
*1268 output16
*1269 output17
*1270 output18
*1271 output19
*1272 output20
*1273 output21
*1274 output22
*1275 output23
*1276 output24
*1277 output25
*1278 output26
*1279 output27
*1280 output28
*1281 output29
*1282 output30
*1283 output31
*1284 output32
*1285 output33
*1286 output34
*1287 output35
*1288 output36
*1289 output37
*1290 output38
*1291 output39
*1292 output40
*1293 output41
*1294 output42
*1295 output43
*1296 output44
*1297 output45
*1298 output46
*1299 output47
*1300 output48
*1301 output49
*1302 output5
*1303 output50
*1304 output51
*1305 output6
*1306 output7
*1307 output8
*1308 output9
*1309 x1/x1/x1
*1310 x1/x1/x10
*1311 x1/x1/x11
*1312 x1/x1/x110
*1313 x1/x1/x12
*1314 x1/x1/x13
*1315 x1/x1/x14
*1316 x1/x1/x15
*1317 x1/x1/x16
*1318 x1/x1/x17
*1319 x1/x1/x2
*1320 x1/x1/x29
*1321 x1/x1/x3
*1322 x1/x1/x4
*1323 x1/x1/x5
*1324 x1/x1/x6
*1325 x1/x1/x7
*1326 x1/x1/x8
*1327 x1/x1/x9
*1328 x1/x12
*1329 x1/x2/x1
*1330 x1/x2/x10
*1331 x1/x2/x100
*1332 x1/x2/x101
*1333 x1/x2/x102
*1334 x1/x2/x103
*1335 x1/x2/x104
*1336 x1/x2/x105
*1337 x1/x2/x106
*1338 x1/x2/x107
*1339 x1/x2/x108
*1340 x1/x2/x109
*1341 x1/x2/x11
*1342 x1/x2/x110
*1343 x1/x2/x111
*1344 x1/x2/x112
*1345 x1/x2/x113
*1346 x1/x2/x114
*1347 x1/x2/x115
*1348 x1/x2/x116
*1349 x1/x2/x117
*1350 x1/x2/x118
*1351 x1/x2/x119/x1
*1352 x1/x2/x119/x10
*1353 x1/x2/x119/x9
*1354 x1/x2/x12
*1355 x1/x2/x120
*1356 x1/x2/x121
*1357 x1/x2/x13
*1358 x1/x2/x14
*1359 x1/x2/x15
*1360 x1/x2/x16/x1
*1361 x1/x2/x16/x10
*1362 x1/x2/x16/x9
*1363 x1/x2/x17/x1
*1364 x1/x2/x17/x10
*1365 x1/x2/x17/x9
*1366 x1/x2/x18
*1367 x1/x2/x19
*1368 x1/x2/x2
*1369 x1/x2/x20
*1370 x1/x2/x21
*1371 x1/x2/x22
*1372 x1/x2/x23
*1373 x1/x2/x24
*1374 x1/x2/x25
*1375 x1/x2/x26
*1376 x1/x2/x27
*1377 x1/x2/x28
*1378 x1/x2/x29
*1379 x1/x2/x3
*1380 x1/x2/x30
*1381 x1/x2/x31
*1382 x1/x2/x32
*1383 x1/x2/x33
*1384 x1/x2/x34
*1385 x1/x2/x35/x1
*1386 x1/x2/x35/x10
*1387 x1/x2/x35/x9
*1388 x1/x2/x36/x1
*1389 x1/x2/x36/x10
*1390 x1/x2/x36/x9
*1391 x1/x2/x37
*1392 x1/x2/x38
*1393 x1/x2/x39/x1
*1394 x1/x2/x39/x10
*1395 x1/x2/x39/x9
*1396 x1/x2/x4
*1397 x1/x2/x40
*1398 x1/x2/x41
*1399 x1/x2/x42
*1400 x1/x2/x43
*1401 x1/x2/x44
*1402 x1/x2/x45
*1403 x1/x2/x46
*1404 x1/x2/x47
*1405 x1/x2/x48
*1406 x1/x2/x49
*1407 x1/x2/x5
*1408 x1/x2/x50
*1409 x1/x2/x51
*1410 x1/x2/x52
*1411 x1/x2/x53
*1412 x1/x2/x54
*1413 x1/x2/x55
*1414 x1/x2/x56
*1415 x1/x2/x57
*1416 x1/x2/x58
*1417 x1/x2/x59
*1418 x1/x2/x6
*1419 x1/x2/x60
*1420 x1/x2/x61
*1421 x1/x2/x62/x1
*1422 x1/x2/x62/x10
*1423 x1/x2/x62/x9
*1424 x1/x2/x63/x1
*1425 x1/x2/x63/x10
*1426 x1/x2/x63/x9
*1427 x1/x2/x64
*1428 x1/x2/x65
*1429 x1/x2/x67
*1430 x1/x2/x68
*1431 x1/x2/x69
*1432 x1/x2/x7
*1433 x1/x2/x70
*1434 x1/x2/x71
*1435 x1/x2/x72
*1436 x1/x2/x73
*1437 x1/x2/x74
*1438 x1/x2/x75
*1439 x1/x2/x76
*1440 x1/x2/x77
*1441 x1/x2/x78
*1442 x1/x2/x79
*1443 x1/x2/x8
*1444 x1/x2/x80
*1445 x1/x2/x81
*1446 x1/x2/x82
*1447 x1/x2/x83
*1448 x1/x2/x84
*1449 x1/x2/x85
*1450 x1/x2/x86
*1451 x1/x2/x87
*1452 x1/x2/x88
*1453 x1/x2/x89
*1454 x1/x2/x9
*1455 x1/x2/x90
*1456 x1/x2/x91
*1457 x1/x2/x92
*1458 x1/x2/x93
*1459 x1/x2/x94
*1460 x1/x2/x95
*1461 x1/x2/x96
*1462 x1/x2/x97
*1463 x1/x2/x98
*1464 x1/x2/x99
*1465 x1/x24
*1466 x1/x3/x1
*1467 x1/x3/x10
*1468 x1/x3/x11
*1469 x1/x3/x12
*1470 x1/x3/x13
*1471 x1/x3/x14
*1472 x1/x3/x15
*1473 x1/x3/x16
*1474 x1/x3/x17
*1475 x1/x3/x18
*1476 x1/x3/x19
*1477 x1/x3/x2
*1478 x1/x3/x20
*1479 x1/x3/x21
*1480 x1/x3/x22
*1481 x1/x3/x23
*1482 x1/x3/x24
*1483 x1/x3/x25
*1484 x1/x3/x26
*1485 x1/x3/x27
*1486 x1/x3/x28
*1487 x1/x3/x3
*1488 x1/x3/x4
*1489 x1/x3/x5
*1490 x1/x3/x6
*1491 x1/x3/x7
*1492 x1/x3/x8
*1493 x1/x3/x9
*1494 x1/x4/x1
*1495 x1/x4/x10
*1496 x1/x4/x11
*1497 x1/x4/x12
*1498 x1/x4/x13
*1499 x1/x4/x14
*1500 x1/x4/x15
*1501 x1/x4/x16
*1502 x1/x4/x17
*1503 x1/x4/x18
*1504 x1/x4/x19
*1505 x1/x4/x2
*1506 x1/x4/x20
*1507 x1/x4/x21
*1508 x1/x4/x22
*1509 x1/x4/x23
*1510 x1/x4/x24
*1511 x1/x4/x25
*1512 x1/x4/x26
*1513 x1/x4/x27
*1514 x1/x4/x28
*1515 x1/x4/x29
*1516 x1/x4/x3
*1517 x1/x4/x30
*1518 x1/x4/x31
*1519 x1/x4/x32
*1520 x1/x4/x33
*1521 x1/x4/x34
*1522 x1/x4/x35
*1523 x1/x4/x36
*1524 x1/x4/x37
*1525 x1/x4/x38
*1526 x1/x4/x39
*1527 x1/x4/x4
*1528 x1/x4/x40
*1529 x1/x4/x41
*1530 x1/x4/x42
*1531 x1/x4/x43
*1532 x1/x4/x44
*1533 x1/x4/x45
*1534 x1/x4/x46
*1535 x1/x4/x47
*1536 x1/x4/x48
*1537 x1/x4/x49
*1538 x1/x4/x5
*1539 x1/x4/x50
*1540 x1/x4/x51
*1541 x1/x4/x52
*1542 x1/x4/x53
*1543 x1/x4/x54
*1544 x1/x4/x55