* NGSPICE file created from digital.ext - technology: sky130A

* Black-box entry subcircuit for sky130_fd_sc_hd__decap_3 abstract view
.subckt sky130_fd_sc_hd__decap_3 VGND VNB VPB VPWR
.ends

* Black-box entry subcircuit for sky130_fd_sc_hd__tapvpwrvgnd_1 abstract view
.subckt sky130_fd_sc_hd__tapvpwrvgnd_1 VGND VPWR
.ends

* Black-box entry subcircuit for sky130_ef_sc_hd__decap_12 abstract view
.subckt sky130_ef_sc_hd__decap_12 VPWR VGND VPB VNB
.ends

* Black-box entry subcircuit for sky130_fd_sc_hd__decap_4 abstract view
.subckt sky130_fd_sc_hd__decap_4 VGND VNB VPB VPWR
.ends

* Black-box entry subcircuit for sky130_fd_sc_hd__decap_8 abstract view
.subckt sky130_fd_sc_hd__decap_8 VGND VNB VPB VPWR
.ends

* Black-box entry subcircuit for sky130_fd_sc_hd__dfstp_1 abstract view
.subckt sky130_fd_sc_hd__dfstp_1 CLK D SET_B VGND VNB VPB VPWR Q
.ends

* Black-box entry subcircuit for sky130_fd_sc_hd__fill_2 abstract view
.subckt sky130_fd_sc_hd__fill_2 VGND VNB VPB VPWR
.ends

* Black-box entry subcircuit for sky130_fd_sc_hd__fill_1 abstract view
.subckt sky130_fd_sc_hd__fill_1 VGND VNB VPB VPWR
.ends

* Black-box entry subcircuit for sky130_fd_sc_hd__dfrtp_1 abstract view
.subckt sky130_fd_sc_hd__dfrtp_1 CLK D RESET_B VGND VNB VPB VPWR Q
.ends

* Black-box entry subcircuit for sky130_fd_sc_hd__clkbuf_1 abstract view
.subckt sky130_fd_sc_hd__clkbuf_1 A VGND VNB VPB VPWR X
.ends

* Black-box entry subcircuit for sky130_fd_sc_hd__xor2_1 abstract view
.subckt sky130_fd_sc_hd__xor2_1 A B VGND VNB VPB VPWR X
.ends

* Black-box entry subcircuit for sky130_fd_sc_hd__clkbuf_4 abstract view
.subckt sky130_fd_sc_hd__clkbuf_4 A VGND VNB VPB VPWR X
.ends

* Black-box entry subcircuit for sky130_fd_sc_hd__buf_2 abstract view
.subckt sky130_fd_sc_hd__buf_2 A VGND VNB VPB VPWR X
.ends

* Black-box entry subcircuit for sky130_fd_sc_hd__decap_6 abstract view
.subckt sky130_fd_sc_hd__decap_6 VGND VNB VPB VPWR
.ends

* Black-box entry subcircuit for sky130_fd_sc_hd__inv_1 abstract view
.subckt sky130_fd_sc_hd__inv_1 A VGND VNB VPB VPWR Y
.ends

* Black-box entry subcircuit for sky130_fd_sc_hd__buf_6 abstract view
.subckt sky130_fd_sc_hd__buf_6 A VGND VNB VPB VPWR X
.ends

* Black-box entry subcircuit for sky130_fd_sc_hd__buf_16 abstract view
.subckt sky130_fd_sc_hd__buf_16 A VGND VNB VPB VPWR X
.ends

* Black-box entry subcircuit for sky130_fd_sc_hd__clkbuf_2 abstract view
.subckt sky130_fd_sc_hd__clkbuf_2 A VGND VNB VPB VPWR X
.ends

* Black-box entry subcircuit for sky130_fd_sc_hd__and2_1 abstract view
.subckt sky130_fd_sc_hd__and2_1 A B VGND VNB VPB VPWR X
.ends

* Black-box entry subcircuit for sky130_fd_sc_hd__and2_0 abstract view
.subckt sky130_fd_sc_hd__and2_0 A B VGND VNB VPB VPWR X
.ends

* Black-box entry subcircuit for sky130_fd_sc_hd__xnor2_1 abstract view
.subckt sky130_fd_sc_hd__xnor2_1 A B VGND VNB VPB VPWR Y
.ends

* Black-box entry subcircuit for sky130_fd_sc_hd__buf_1 abstract view
.subckt sky130_fd_sc_hd__buf_1 A VGND VNB VPB VPWR X
.ends

* Black-box entry subcircuit for sky130_fd_sc_hd__fa_1 abstract view
.subckt sky130_fd_sc_hd__fa_1 A B CIN VGND VNB VPB VPWR COUT SUM
.ends

* Black-box entry subcircuit for sky130_fd_sc_hd__dfrtp_4 abstract view
.subckt sky130_fd_sc_hd__dfrtp_4 CLK D RESET_B VGND VNB VPB VPWR Q
.ends

.subckt digital GND VDD VGND VPWR clk clr comp_clk comp_n comp_p done obit1 obit10
+ obit2 obit3 obit4 obit5 obit6 obit7 obit8 obit9 sw_n1 sw_n2 sw_n3 sw_n4 sw_n5 sw_n6
+ sw_n7 sw_n8 sw_n_sp1 sw_n_sp2 sw_n_sp3 sw_n_sp4 sw_n_sp5 sw_n_sp6 sw_n_sp7 sw_n_sp8
+ sw_n_sp9 sw_p1 sw_p2 sw_p3 sw_p4 sw_p5 sw_p6 sw_p7 sw_p8 sw_p_sp1 sw_p_sp2 sw_p_sp3
+ sw_p_sp4 sw_p_sp5 sw_p_sp6 sw_p_sp7 sw_p_sp8 sw_p_sp9 sw_sample
XFILLER_0_4_193 VGND VGND VPWR VPWR sky130_fd_sc_hd__decap_3
XTAP_TAPCELL_ROW_15_128 VGND VPWR sky130_fd_sc_hd__tapvpwrvgnd_1
XFILLER_0_3_39 VPWR VGND VPWR VGND sky130_ef_sc_hd__decap_12
XFILLER_0_1_163 VGND VGND VPWR VPWR sky130_fd_sc_hd__decap_4
XFILLER_0_18_29 VGND VGND VPWR VPWR sky130_fd_sc_hd__decap_8
Xx1_x2_x7 x1_x2_x7/CLK net63 net54 VGND VGND VPWR VPWR net17 sky130_fd_sc_hd__dfstp_1
XFILLER_0_4_60 VGND VGND VPWR VPWR sky130_fd_sc_hd__decap_3
XFILLER_0_0_29 VGND VGND VPWR VPWR sky130_fd_sc_hd__decap_3
XFILLER_0_10_96 VGND VGND VPWR VPWR sky130_fd_sc_hd__fill_2
XFILLER_0_35_71 VPWR VGND VPWR VGND sky130_ef_sc_hd__decap_12
XFILLER_0_19_158 VGND VGND VPWR VPWR sky130_fd_sc_hd__decap_8
XFILLER_0_19_61 VGND VGND VPWR VPWR sky130_fd_sc_hd__fill_1
XFILLER_0_33_150 VPWR VGND VPWR VGND sky130_ef_sc_hd__decap_12
XFILLER_0_18_191 VGND VGND VPWR VPWR sky130_fd_sc_hd__decap_4
XFILLER_0_31_109 VGND VGND VPWR VPWR sky130_fd_sc_hd__decap_3
Xx1_x3_x14 net71 x1_x3_x14/D net69 VGND VGND VPWR VPWR x1_x3_x15/D sky130_fd_sc_hd__dfrtp_1
XFILLER_0_30_197 VGND VGND VPWR VPWR sky130_fd_sc_hd__decap_8
XFILLER_0_30_153 VPWR VGND VPWR VGND sky130_ef_sc_hd__decap_12
XFILLER_0_30_120 VPWR VGND VPWR VGND sky130_ef_sc_hd__decap_12
XFILLER_0_26_29 VGND VGND VPWR VPWR sky130_fd_sc_hd__decap_4
Xx1_x1_x110 net58 x1_x1_x110/D net68 VGND VGND VPWR VPWR net7 sky130_fd_sc_hd__dfrtp_1
XFILLER_0_22_109 VPWR VGND VPWR VGND sky130_ef_sc_hd__decap_12
Xx1_x3_x25 x1_x3_x25/A VGND VGND VPWR VPWR x1_x3_x26/A sky130_fd_sc_hd__clkbuf_1
Xx1_x2_x80 x1_x2_x81/X VGND VGND VPWR VPWR x1_x2_x80/X sky130_fd_sc_hd__clkbuf_1
XFILLER_0_21_131 VGND VGND VPWR VPWR sky130_fd_sc_hd__fill_1
Xx1_x2_x91 x1_x1_x5/B net63 VGND VGND VPWR VPWR x1_x2_x91/X sky130_fd_sc_hd__xor2_1
XFILLER_0_8_147 VPWR VGND VPWR VGND sky130_ef_sc_hd__decap_12
XFILLER_0_12_197 VGND VGND VPWR VPWR sky130_fd_sc_hd__decap_8
XFILLER_0_12_153 VPWR VGND VPWR VGND sky130_ef_sc_hd__decap_12
Xoutput42 net42 VGND VGND VPWR VPWR sw_p_sp1 sky130_fd_sc_hd__clkbuf_4
Xoutput7 net7 VGND VGND VPWR VPWR obit1 sky130_fd_sc_hd__buf_2
XFILLER_0_26_201 VGND VGND VPWR VPWR sky130_fd_sc_hd__fill_1
Xoutput20 net20 VGND VGND VPWR VPWR sw_n4 sky130_fd_sc_hd__buf_2
Xoutput31 net31 VGND VGND VPWR VPWR sw_n_sp7 sky130_fd_sc_hd__buf_2
XFILLER_0_7_93 VPWR VGND VPWR VGND sky130_ef_sc_hd__decap_12
XFILLER_0_23_19 VGND VGND VPWR VPWR sky130_fd_sc_hd__fill_2
XTAP_TAPCELL_ROW_15_129 VGND VPWR sky130_fd_sc_hd__tapvpwrvgnd_1
XFILLER_0_24_40 VGND VGND VPWR VPWR sky130_fd_sc_hd__decap_3
XPHY_EDGE_ROW_21_Right_21 VGND VGND VPWR VPWR sky130_fd_sc_hd__decap_3
XPHY_EDGE_ROW_12_Right_12 VGND VGND VPWR VPWR sky130_fd_sc_hd__decap_3
Xx1_x2_x8 x1_x2_x8/CLK net63 net54 VGND VGND VPWR VPWR net19 sky130_fd_sc_hd__dfstp_1
XPHY_EDGE_ROW_30_Right_30 VGND VGND VPWR VPWR sky130_fd_sc_hd__decap_3
XFILLER_0_35_83 VGND VGND VPWR VPWR sky130_fd_sc_hd__fill_1
XFILLER_0_19_104 VGND VGND VPWR VPWR sky130_fd_sc_hd__decap_4
XFILLER_0_33_162 VGND VGND VPWR VPWR sky130_fd_sc_hd__decap_6
XPHY_EDGE_ROW_28_Left_64 VGND VGND VPWR VPWR sky130_fd_sc_hd__decap_3
XPHY_EDGE_ROW_12_Left_48 VGND VGND VPWR VPWR sky130_fd_sc_hd__decap_3
XFILLER_0_30_176 VGND VGND VPWR VPWR sky130_fd_sc_hd__fill_1
XFILLER_0_30_165 VGND VGND VPWR VPWR sky130_fd_sc_hd__fill_2
XFILLER_0_30_132 VGND VGND VPWR VPWR sky130_fd_sc_hd__decap_8
XFILLER_0_26_19 VGND VGND VPWR VPWR sky130_fd_sc_hd__fill_1
XFILLER_0_27_3 VGND VGND VPWR VPWR sky130_fd_sc_hd__decap_4
XFILLER_0_15_173 VGND VGND VPWR VPWR sky130_fd_sc_hd__fill_1
Xx1_x3_x15 net70 x1_x3_x15/D net67 VGND VGND VPWR VPWR x1_x3_x16/D sky130_fd_sc_hd__dfrtp_1
XFILLER_0_16_85 VGND VGND VPWR VPWR sky130_fd_sc_hd__decap_3
XFILLER_0_16_41 VGND VGND VPWR VPWR sky130_fd_sc_hd__decap_8
Xx1_x3_x26 x1_x3_x26/A VGND VGND VPWR VPWR x1_x3_x27/A sky130_fd_sc_hd__clkbuf_1
XFILLER_0_6_29 VGND VGND VPWR VPWR sky130_fd_sc_hd__decap_8
Xx1_x2_x81 x1/cycle2 VGND VGND VPWR VPWR x1_x2_x81/X sky130_fd_sc_hd__clkbuf_1
Xx1_x2_x70 x1_x2_x70/CLK x1_x2_x72/Y net56 VGND VGND VPWR VPWR net41 sky130_fd_sc_hd__dfstp_1
Xx1_x2_x92 x1_x2_x93/X VGND VGND VPWR VPWR x1_x2_x92/X sky130_fd_sc_hd__clkbuf_1
XFILLER_0_12_165 VPWR VGND VPWR VGND sky130_ef_sc_hd__decap_12
XFILLER_0_12_121 VPWR VGND VPWR VGND sky130_ef_sc_hd__decap_12
XPHY_EDGE_ROW_6_Right_6 VGND VGND VPWR VPWR sky130_fd_sc_hd__decap_3
XFILLER_0_8_159 VPWR VGND VPWR VGND sky130_ef_sc_hd__decap_12
Xoutput43 net43 VGND VGND VPWR VPWR sw_p_sp2 sky130_fd_sc_hd__clkbuf_4
Xoutput10 net10 VGND VGND VPWR VPWR obit3 sky130_fd_sc_hd__buf_2
XTAP_TAPCELL_ROW_18_138 VGND VPWR sky130_fd_sc_hd__tapvpwrvgnd_1
Xoutput21 net21 VGND VGND VPWR VPWR sw_n5 sky130_fd_sc_hd__buf_2
Xoutput8 net8 VGND VGND VPWR VPWR obit10 sky130_fd_sc_hd__buf_2
Xoutput32 net32 VGND VGND VPWR VPWR sw_n_sp8 sky130_fd_sc_hd__buf_2
XFILLER_0_5_107 VGND VGND VPWR VPWR sky130_fd_sc_hd__decap_4
XFILLER_0_32_205 VGND VGND VPWR VPWR sky130_fd_sc_hd__fill_2
XFILLER_0_27_51 VGND VGND VPWR VPWR sky130_fd_sc_hd__decap_4
XPHY_EDGE_ROW_15_Left_51 VGND VGND VPWR VPWR sky130_fd_sc_hd__decap_3
XFILLER_0_14_205 VGND VGND VPWR VPWR sky130_fd_sc_hd__fill_1
XFILLER_0_1_110 VGND VGND VPWR VPWR sky130_fd_sc_hd__fill_2
XPHY_EDGE_ROW_0_Left_36 VGND VGND VPWR VPWR sky130_fd_sc_hd__decap_3
XFILLER_0_34_19 VGND VGND VPWR VPWR sky130_fd_sc_hd__decap_8
Xx1_x2_x9 net65 VGND VGND VPWR VPWR x1_x2_x9/Y sky130_fd_sc_hd__inv_1
XFILLER_0_25_119 VGND VGND VPWR VPWR sky130_fd_sc_hd__fill_1
XFILLER_0_25_108 VGND VGND VPWR VPWR sky130_fd_sc_hd__decap_4
XFILLER_0_15_141 VPWR VGND VPWR VGND sky130_ef_sc_hd__decap_12
Xx1_x3_x16 net70 x1_x3_x16/D net67 VGND VGND VPWR VPWR x1_x3_x20/A sky130_fd_sc_hd__dfrtp_1
XFILLER_0_21_144 VPWR VGND VPWR VGND sky130_ef_sc_hd__decap_12
XFILLER_0_21_111 VGND VGND VPWR VPWR sky130_fd_sc_hd__fill_1
Xx1_x3_x27 x1_x3_x27/A VGND VGND VPWR VPWR x1_x3_x28/A sky130_fd_sc_hd__buf_6
Xx1_x2_x82 x1/cycle2 x1_x2_x83/X net56 VGND VGND VPWR VPWR x1_x2_x82/Q sky130_fd_sc_hd__dfrtp_1
Xx1_x2_x71 x1/cycle1 net64 net55 VGND VGND VPWR VPWR x1_x1_x1/A sky130_fd_sc_hd__dfrtp_1
XFILLER_0_16_97 VGND VGND VPWR VPWR sky130_fd_sc_hd__fill_2
XFILLER_0_16_75 VGND VGND VPWR VPWR sky130_fd_sc_hd__decap_8
XFILLER_0_16_20 VGND VGND VPWR VPWR sky130_fd_sc_hd__decap_8
Xx1_x2_x93 x1/cycle6 VGND VGND VPWR VPWR x1_x2_x93/X sky130_fd_sc_hd__clkbuf_1
Xx1_x2_x60 net62 VGND VGND VPWR VPWR x1_x2_x60/Y sky130_fd_sc_hd__inv_1
XFILLER_0_12_177 VPWR VGND VPWR VGND sky130_ef_sc_hd__decap_12
XFILLER_0_12_133 VGND VGND VPWR VPWR sky130_fd_sc_hd__decap_6
XFILLER_0_35_203 VGND VGND VPWR VPWR sky130_fd_sc_hd__fill_1
Xoutput44 net44 VGND VGND VPWR VPWR sw_p_sp3 sky130_fd_sc_hd__clkbuf_4
Xoutput9 net9 VGND VGND VPWR VPWR obit2 sky130_fd_sc_hd__buf_2
Xoutput11 net11 VGND VGND VPWR VPWR obit4 sky130_fd_sc_hd__buf_2
XTAP_TAPCELL_ROW_18_139 VGND VPWR sky130_fd_sc_hd__tapvpwrvgnd_1
Xoutput22 net22 VGND VGND VPWR VPWR sw_n6 sky130_fd_sc_hd__buf_2
Xoutput33 net33 VGND VGND VPWR VPWR sw_n_sp9 sky130_fd_sc_hd__clkbuf_4
XFILLER_0_7_51 VGND VGND VPWR VPWR sky130_fd_sc_hd__decap_4
XTAP_TAPCELL_ROW_9_107 VGND VPWR sky130_fd_sc_hd__tapvpwrvgnd_1
XTAP_TAPCELL_ROW_20_145 VGND VPWR sky130_fd_sc_hd__tapvpwrvgnd_1
XFILLER_0_24_75 VGND VGND VPWR VPWR sky130_fd_sc_hd__decap_4
XFILLER_0_4_85 VPWR VGND VPWR VGND sky130_ef_sc_hd__decap_12
XFILLER_0_35_63 VGND VGND VPWR VPWR sky130_fd_sc_hd__fill_2
XFILLER_0_19_53 VGND VGND VPWR VPWR sky130_fd_sc_hd__decap_3
XFILLER_0_10_11 VGND VGND VPWR VPWR sky130_fd_sc_hd__fill_2
XFILLER_0_10_55 VGND VGND VPWR VPWR sky130_fd_sc_hd__fill_2
XFILLER_0_21_32 VPWR VGND VPWR VGND sky130_ef_sc_hd__decap_12
XFILLER_0_24_197 VGND VGND VPWR VPWR sky130_fd_sc_hd__decap_3
XFILLER_0_15_153 VPWR VGND VPWR VGND sky130_ef_sc_hd__decap_12
Xx1_x3_x17 x1_x3_x18/X VGND VGND VPWR VPWR x1_x3_x19/A sky130_fd_sc_hd__clkbuf_1
XFILLER_0_21_189 VGND VGND VPWR VPWR sky130_fd_sc_hd__fill_1
XFILLER_0_21_156 VPWR VGND VPWR VGND sky130_ef_sc_hd__decap_12
Xx1_x3_x28 x1_x3_x28/A VGND VGND VPWR VPWR net5 sky130_fd_sc_hd__buf_16
Xx1_x2_x83 x1_x1_x2/B net65 VGND VGND VPWR VPWR x1_x2_x83/X sky130_fd_sc_hd__xor2_1
Xx1_x2_x61 net66 VGND VGND VPWR VPWR x1_x2_x61/Y sky130_fd_sc_hd__inv_1
Xx1_x2_x72 net66 VGND VGND VPWR VPWR x1_x2_x72/Y sky130_fd_sc_hd__inv_1
XFILLER_0_12_189 VGND VGND VPWR VPWR sky130_fd_sc_hd__decap_6
Xx1_x2_x50 x1/cycle7 net61 x1_x2_x58/X VGND VGND VPWR VPWR net31 sky130_fd_sc_hd__dfrtp_1
Xx1_x2_x94 x1/cycle8 x1_x2_x99/X net52 VGND VGND VPWR VPWR x1_x2_x94/Q sky130_fd_sc_hd__dfrtp_1
Xoutput34 net34 VGND VGND VPWR VPWR sw_p1 sky130_fd_sc_hd__clkbuf_4
Xoutput45 net45 VGND VGND VPWR VPWR sw_p_sp4 sky130_fd_sc_hd__clkbuf_4
XFILLER_0_32_3 VPWR VGND VPWR VGND sky130_ef_sc_hd__decap_12
Xoutput12 net12 VGND VGND VPWR VPWR obit5 sky130_fd_sc_hd__buf_2
Xoutput23 net23 VGND VGND VPWR VPWR sw_n7 sky130_fd_sc_hd__buf_2
XFILLER_0_7_161 VGND VGND VPWR VPWR sky130_fd_sc_hd__decap_6
XFILLER_0_27_75 VGND VGND VPWR VPWR sky130_fd_sc_hd__fill_1
XTAP_TAPCELL_ROW_32_187 VGND VPWR sky130_fd_sc_hd__tapvpwrvgnd_1
XFILLER_0_4_197 VPWR VGND VPWR VGND sky130_ef_sc_hd__decap_12
XFILLER_0_7_63 VPWR VGND VPWR VGND sky130_ef_sc_hd__decap_12
XTAP_TAPCELL_ROW_9_108 VGND VPWR sky130_fd_sc_hd__tapvpwrvgnd_1
XFILLER_0_13_33 VGND VGND VPWR VPWR sky130_fd_sc_hd__decap_3
XTAP_TAPCELL_ROW_20_146 VGND VPWR sky130_fd_sc_hd__tapvpwrvgnd_1
XFILLER_0_1_167 VGND VGND VPWR VPWR sky130_fd_sc_hd__fill_1
XFILLER_0_24_32 VGND VGND VPWR VPWR sky130_fd_sc_hd__decap_8
XFILLER_0_4_97 VGND VGND VPWR VPWR sky130_fd_sc_hd__decap_4
XFILLER_0_19_76 VGND VGND VPWR VPWR sky130_fd_sc_hd__fill_1
XFILLER_0_19_65 VGND VGND VPWR VPWR sky130_fd_sc_hd__decap_8
XFILLER_0_27_173 VGND VGND VPWR VPWR sky130_fd_sc_hd__fill_2
XFILLER_0_27_151 VGND VGND VPWR VPWR sky130_fd_sc_hd__fill_1
XFILLER_0_18_195 VGND VGND VPWR VPWR sky130_fd_sc_hd__fill_1
XFILLER_0_34_7 VPWR VGND VPWR VGND sky130_ef_sc_hd__decap_12
XFILLER_0_21_44 VPWR VGND VPWR VGND sky130_ef_sc_hd__decap_12
Xx1_x3_x18 x1_x3_x1/D VGND VGND VPWR VPWR x1_x3_x18/X sky130_fd_sc_hd__clkbuf_1
XFILLER_0_15_165 VGND VGND VPWR VPWR sky130_fd_sc_hd__decap_3
Xx1_x2_x40 x1_x2_x40/CLK x1_x2_x42/Y net56 VGND VGND VPWR VPWR net37 sky130_fd_sc_hd__dfstp_1
XFILLER_0_29_202 VGND VGND VPWR VPWR sky130_fd_sc_hd__decap_8
XFILLER_0_21_135 VGND VGND VPWR VPWR sky130_fd_sc_hd__decap_4
XFILLER_0_21_113 VPWR VGND VPWR VGND sky130_ef_sc_hd__decap_12
Xx1_x2_x84 x1_x2_x85/X VGND VGND VPWR VPWR x1_x2_x84/X sky130_fd_sc_hd__clkbuf_1
Xx1_x2_x95 x1_x1_x5/B net62 VGND VGND VPWR VPWR x1_x2_x95/X sky130_fd_sc_hd__xor2_1
Xx1_x2_x51 x1/cycle7 x1_x2_x57/Y x1_x2_x58/X VGND VGND VPWR VPWR net48 sky130_fd_sc_hd__dfrtp_1
Xx1_x2_x73 x1/cycle11 net61 net52 VGND VGND VPWR VPWR net33 sky130_fd_sc_hd__dfrtp_1
Xoutput35 net35 VGND VGND VPWR VPWR sw_p2 sky130_fd_sc_hd__clkbuf_4
Xoutput46 net46 VGND VGND VPWR VPWR sw_p_sp5 sky130_fd_sc_hd__clkbuf_4
XFILLER_0_25_3 VPWR VGND VPWR VGND sky130_ef_sc_hd__decap_12
Xoutput13 net13 VGND VGND VPWR VPWR obit6 sky130_fd_sc_hd__buf_2
Xoutput24 net24 VGND VGND VPWR VPWR sw_n8 sky130_fd_sc_hd__buf_2
XPHY_EDGE_ROW_28_Right_28 VGND VGND VPWR VPWR sky130_fd_sc_hd__decap_3
XPHY_EDGE_ROW_19_Right_19 VGND VGND VPWR VPWR sky130_fd_sc_hd__decap_3
XTAP_TAPCELL_ROW_32_188 VGND VPWR sky130_fd_sc_hd__tapvpwrvgnd_1
XFILLER_0_7_75 VPWR VGND VPWR VGND sky130_ef_sc_hd__decap_12
XTAP_TAPCELL_ROW_9_109 VGND VPWR sky130_fd_sc_hd__tapvpwrvgnd_1
XPHY_EDGE_ROW_19_Left_55 VGND VGND VPWR VPWR sky130_fd_sc_hd__decap_3
XFILLER_0_1_113 VGND VGND VPWR VPWR sky130_fd_sc_hd__decap_6
XTAP_TAPCELL_ROW_20_147 VGND VPWR sky130_fd_sc_hd__tapvpwrvgnd_1
XFILLER_0_6_205 VGND VGND VPWR VPWR sky130_fd_sc_hd__fill_1
XTAP_TAPCELL_ROW_11_114 VGND VPWR sky130_fd_sc_hd__tapvpwrvgnd_1
XFILLER_0_4_32 VGND VGND VPWR VPWR sky130_fd_sc_hd__fill_2
Xfanout70 net71 VGND VGND VPWR VPWR net70 sky130_fd_sc_hd__clkbuf_2
XFILLER_0_35_43 VPWR VGND VPWR VGND sky130_ef_sc_hd__decap_12
XFILLER_0_27_185 VGND VGND VPWR VPWR sky130_fd_sc_hd__decap_4
XFILLER_0_27_163 VGND VGND VPWR VPWR sky130_fd_sc_hd__decap_4
XFILLER_0_19_108 VGND VGND VPWR VPWR sky130_fd_sc_hd__fill_1
XTAP_TAPCELL_ROW_0_72 VGND VPWR sky130_fd_sc_hd__tapvpwrvgnd_1
XFILLER_0_18_141 VGND VGND VPWR VPWR sky130_fd_sc_hd__decap_3
XFILLER_0_27_7 VGND VGND VPWR VPWR sky130_fd_sc_hd__fill_1
XFILLER_0_24_144 VGND VGND VPWR VPWR sky130_fd_sc_hd__decap_6
XFILLER_0_1_44 VPWR VGND VPWR VGND sky130_ef_sc_hd__decap_12
Xx1_x3_x19 x1_x3_x19/A VGND VGND VPWR VPWR net51 sky130_fd_sc_hd__buf_6
XFILLER_0_1_88 VGND VGND VPWR VPWR sky130_fd_sc_hd__fill_1
XFILLER_0_32_88 VPWR VGND VPWR VGND sky130_ef_sc_hd__decap_12
XFILLER_0_32_33 VPWR VGND VPWR VGND sky130_ef_sc_hd__decap_12
Xx1_x2_x74 net66 VGND VGND VPWR VPWR x1_x2_x75/D sky130_fd_sc_hd__inv_1
Xx1_x2_x30 net64 VGND VGND VPWR VPWR x1_x2_x30/Y sky130_fd_sc_hd__inv_1
XFILLER_0_21_169 VPWR VGND VPWR VGND sky130_ef_sc_hd__decap_12
XFILLER_0_21_125 VGND VGND VPWR VPWR sky130_fd_sc_hd__decap_6
Xx1_x2_x85 x1/cycle4 VGND VGND VPWR VPWR x1_x2_x85/X sky130_fd_sc_hd__clkbuf_1
Xx1_x2_x41 x1_x2_x43/CLK net62 net53 VGND VGND VPWR VPWR net21 sky130_fd_sc_hd__dfstp_1
Xx1_x2_x52 x1/cycle7 net61 x1_x2_x64/X VGND VGND VPWR VPWR net32 sky130_fd_sc_hd__dfrtp_1
Xx1_x2_x96 x1_x2_x97/X VGND VGND VPWR VPWR x1_x2_x96/X sky130_fd_sc_hd__clkbuf_1
XPHY_EDGE_ROW_7_Left_43 VGND VGND VPWR VPWR sky130_fd_sc_hd__decap_3
XFILLER_0_8_108 VPWR VGND VPWR VGND sky130_ef_sc_hd__decap_12
XFILLER_0_18_3 VPWR VGND VPWR VGND sky130_ef_sc_hd__decap_12
Xoutput36 net36 VGND VGND VPWR VPWR sw_p3 sky130_fd_sc_hd__clkbuf_4
Xoutput47 net47 VGND VGND VPWR VPWR sw_p_sp6 sky130_fd_sc_hd__clkbuf_4
XPHY_EDGE_ROW_33_Left_69 VGND VGND VPWR VPWR sky130_fd_sc_hd__decap_3
Xoutput25 net25 VGND VGND VPWR VPWR sw_n_sp1 sky130_fd_sc_hd__clkbuf_4
Xoutput14 net14 VGND VGND VPWR VPWR obit7 sky130_fd_sc_hd__buf_2
XTAP_TAPCELL_ROW_32_189 VGND VPWR sky130_fd_sc_hd__tapvpwrvgnd_1
XFILLER_0_27_55 VGND VGND VPWR VPWR sky130_fd_sc_hd__fill_1
XFILLER_0_27_11 VGND VGND VPWR VPWR sky130_fd_sc_hd__decap_8
XFILLER_0_4_122 VPWR VGND VPWR VGND sky130_ef_sc_hd__decap_12
XFILLER_0_7_87 VGND VGND VPWR VPWR sky130_fd_sc_hd__decap_3
XTAP_TAPCELL_ROW_23_156 VGND VPWR sky130_fd_sc_hd__tapvpwrvgnd_1
XFILLER_0_7_3 VPWR VGND VPWR VGND sky130_ef_sc_hd__decap_12
XFILLER_0_13_57 VPWR VGND VPWR VGND sky130_ef_sc_hd__decap_12
XFILLER_0_1_169 VGND VGND VPWR VPWR sky130_fd_sc_hd__decap_4
XTAP_TAPCELL_ROW_20_148 VGND VPWR sky130_fd_sc_hd__tapvpwrvgnd_1
XPHY_EDGE_ROW_20_Left_56 VGND VGND VPWR VPWR sky130_fd_sc_hd__decap_3
XTAP_TAPCELL_ROW_11_115 VGND VPWR sky130_fd_sc_hd__tapvpwrvgnd_1
XFILLER_0_4_66 VGND VGND VPWR VPWR sky130_fd_sc_hd__decap_3
Xfanout71 net1 VGND VGND VPWR VPWR net71 sky130_fd_sc_hd__clkbuf_2
XFILLER_0_28_109 VGND VGND VPWR VPWR sky130_fd_sc_hd__fill_1
Xfanout60 fanout60/A VGND VGND VPWR VPWR net60 sky130_fd_sc_hd__buf_2
XFILLER_0_35_99 VPWR VGND VPWR VGND sky130_ef_sc_hd__decap_12
XFILLER_0_35_55 VGND VGND VPWR VPWR sky130_fd_sc_hd__fill_1
XFILLER_0_19_45 VGND VGND VPWR VPWR sky130_fd_sc_hd__decap_8
XTAP_TAPCELL_ROW_0_73 VGND VPWR sky130_fd_sc_hd__tapvpwrvgnd_1
XFILLER_0_10_47 VGND VGND VPWR VPWR sky130_fd_sc_hd__decap_8
XFILLER_0_18_197 VGND VGND VPWR VPWR sky130_fd_sc_hd__decap_8
Xx1_x3_x1 net70 x1_x3_x1/D net67 VGND VGND VPWR VPWR x1_x3_x2/D sky130_fd_sc_hd__dfrtp_1
XFILLER_0_21_57 VPWR VGND VPWR VGND sky130_ef_sc_hd__decap_12
Xx1_x2_x20 net64 VGND VGND VPWR VPWR x1_x2_x22/D sky130_fd_sc_hd__inv_1
Xx1_x2_x42 net66 VGND VGND VPWR VPWR x1_x2_x42/Y sky130_fd_sc_hd__inv_1
XFILLER_0_32_45 VPWR VGND VPWR VGND sky130_ef_sc_hd__decap_12
Xx1_x2_x75 x1/cycle11 x1_x2_x75/D net56 VGND VGND VPWR VPWR net50 sky130_fd_sc_hd__dfrtp_1
Xx1_x2_x31 x1_x2_x32/Y net54 VGND VGND VPWR VPWR x1_x2_x31/X sky130_fd_sc_hd__and2_1
Xx1_x2_x86 x1/cycle5 x1_x2_x91/X net57 VGND VGND VPWR VPWR x1_x2_x86/Q sky130_fd_sc_hd__dfrtp_1
Xx1_x2_x53 x1/cycle7 x1_x2_x60/Y x1_x2_x64/X VGND VGND VPWR VPWR net49 sky130_fd_sc_hd__dfrtp_1
Xx1_x2_x97 x1/cycle8 VGND VGND VPWR VPWR x1_x2_x97/X sky130_fd_sc_hd__clkbuf_1
Xx1_x2_x64 x1_x2_x65/Y net53 VGND VGND VPWR VPWR x1_x2_x64/X sky130_fd_sc_hd__and2_1
Xoutput37 net37 VGND VGND VPWR VPWR sw_p4 sky130_fd_sc_hd__clkbuf_4
Xoutput48 net48 VGND VGND VPWR VPWR sw_p_sp7 sky130_fd_sc_hd__clkbuf_4
XTAP_TAPCELL_ROW_35_198 VGND VPWR sky130_fd_sc_hd__tapvpwrvgnd_1
XPHY_EDGE_ROW_1_Right_1 VGND VGND VPWR VPWR sky130_fd_sc_hd__decap_3
Xoutput26 net26 VGND VGND VPWR VPWR sw_n_sp2 sky130_fd_sc_hd__buf_2
Xoutput15 net15 VGND VGND VPWR VPWR obit8 sky130_fd_sc_hd__buf_2
XFILLER_0_4_101 VGND VGND VPWR VPWR sky130_fd_sc_hd__fill_1
XFILLER_0_4_134 VGND VGND VPWR VPWR sky130_fd_sc_hd__decap_6
XFILLER_0_30_3 VGND VGND VPWR VPWR sky130_fd_sc_hd__decap_4
XTAP_TAPCELL_ROW_23_157 VGND VPWR sky130_fd_sc_hd__tapvpwrvgnd_1
XFILLER_0_7_55 VGND VGND VPWR VPWR sky130_fd_sc_hd__fill_1
XFILLER_0_13_69 VPWR VGND VPWR VGND sky130_ef_sc_hd__decap_12
XFILLER_0_13_25 VGND VGND VPWR VPWR sky130_fd_sc_hd__decap_8
XTAP_TAPCELL_ROW_14_124 VGND VPWR sky130_fd_sc_hd__tapvpwrvgnd_1
XFILLER_0_0_181 VGND VGND VPWR VPWR sky130_fd_sc_hd__decap_8
Xx1_x2_x16_x1 x1_x2_x78/Q x1_x2_x77/X VGND VGND VPWR VPWR x1_x2_x11/A sky130_fd_sc_hd__and2_0
XTAP_TAPCELL_ROW_11_116 VGND VPWR sky130_fd_sc_hd__tapvpwrvgnd_1
XFILLER_0_19_57 VGND VGND VPWR VPWR sky130_fd_sc_hd__decap_4
XTAP_TAPCELL_ROW_0_74 VGND VPWR sky130_fd_sc_hd__tapvpwrvgnd_1
Xfanout61 net62 VGND VGND VPWR VPWR net61 sky130_fd_sc_hd__buf_2
XFILLER_0_10_37 VGND VGND VPWR VPWR sky130_fd_sc_hd__fill_2
XFILLER_0_33_113 VPWR VGND VPWR VGND sky130_ef_sc_hd__decap_12
Xx1_x3_x2 net70 x1_x3_x2/D net67 VGND VGND VPWR VPWR x1_x3_x3/D sky130_fd_sc_hd__dfrtp_1
XFILLER_0_21_69 VGND VGND VPWR VPWR sky130_fd_sc_hd__decap_4
XFILLER_0_1_57 VGND VGND VPWR VPWR sky130_fd_sc_hd__decap_3
XFILLER_0_21_105 VGND VGND VPWR VPWR sky130_fd_sc_hd__decap_6
XFILLER_0_14_190 VGND VGND VPWR VPWR sky130_fd_sc_hd__decap_6
XFILLER_0_32_57 VGND VGND VPWR VPWR sky130_fd_sc_hd__decap_3
Xx1_x2_x10 x1_x2_x11/Y net55 VGND VGND VPWR VPWR x1_x2_x10/X sky130_fd_sc_hd__and2_1
Xx1_x2_x76 x1/cycle1 VGND VGND VPWR VPWR x1_x2_x77/A sky130_fd_sc_hd__clkbuf_1
Xx1_x2_x43 x1_x2_x43/CLK x1_x2_x45/Y net56 VGND VGND VPWR VPWR net38 sky130_fd_sc_hd__dfstp_1
Xx1_x2_x54 x1_x2_x54/CLK x1_x2_x61/Y net56 VGND VGND VPWR VPWR net39 sky130_fd_sc_hd__dfstp_1
Xx1_x2_x21 x1_x2_x29/Y net55 VGND VGND VPWR VPWR x1_x2_x21/X sky130_fd_sc_hd__and2_1
Xx1_x2_x87 x1_x1_x5/B net64 VGND VGND VPWR VPWR x1_x2_x87/X sky130_fd_sc_hd__xor2_1
Xx1_x2_x32 x1_x2_x32/A VGND VGND VPWR VPWR x1_x2_x32/Y sky130_fd_sc_hd__inv_1
Xx1_x2_x98 x1/cycle9 x1_x2_x98/D net52 VGND VGND VPWR VPWR x1_x2_x98/Q sky130_fd_sc_hd__dfrtp_1
Xx1_x2_x65 x1_x2_x65/A VGND VGND VPWR VPWR x1_x2_x65/Y sky130_fd_sc_hd__inv_1
Xoutput38 net38 VGND VGND VPWR VPWR sw_p5 sky130_fd_sc_hd__clkbuf_4
Xoutput49 net49 VGND VGND VPWR VPWR sw_p_sp8 sky130_fd_sc_hd__clkbuf_4
XTAP_TAPCELL_ROW_35_199 VGND VPWR sky130_fd_sc_hd__tapvpwrvgnd_1
Xoutput27 net27 VGND VGND VPWR VPWR sw_n_sp3 sky130_fd_sc_hd__buf_2
Xoutput16 net16 VGND VGND VPWR VPWR obit9 sky130_fd_sc_hd__buf_2
XFILLER_0_7_187 VGND VGND VPWR VPWR sky130_fd_sc_hd__decap_3
XFILLER_0_26_208 VGND VGND VPWR VPWR sky130_fd_sc_hd__fill_2
XFILLER_0_27_57 VPWR VGND VPWR VGND sky130_ef_sc_hd__decap_12
XTAP_TAPCELL_ROW_26_166 VGND VPWR sky130_fd_sc_hd__tapvpwrvgnd_1
XPHY_EDGE_ROW_24_Right_24 VGND VGND VPWR VPWR sky130_fd_sc_hd__decap_3
XTAP_TAPCELL_ROW_23_158 VGND VPWR sky130_fd_sc_hd__tapvpwrvgnd_1
XFILLER_0_23_3 VGND VGND VPWR VPWR sky130_fd_sc_hd__decap_4
XPHY_EDGE_ROW_15_Right_15 VGND VGND VPWR VPWR sky130_fd_sc_hd__decap_3
XFILLER_0_4_157 VPWR VGND VPWR VGND sky130_ef_sc_hd__decap_12
XPHY_EDGE_ROW_33_Right_33 VGND VGND VPWR VPWR sky130_fd_sc_hd__decap_3
XTAP_TAPCELL_ROW_14_125 VGND VPWR sky130_fd_sc_hd__tapvpwrvgnd_1
XFILLER_0_35_35 VGND VGND VPWR VPWR sky130_fd_sc_hd__fill_2
Xfanout62 x1_x6/X VGND VGND VPWR VPWR net62 sky130_fd_sc_hd__buf_2
XTAP_TAPCELL_ROW_0_75 VGND VPWR sky130_fd_sc_hd__tapvpwrvgnd_1
XFILLER_0_27_100 VGND VGND VPWR VPWR sky130_fd_sc_hd__fill_2
Xx1_x2_x119_x10 x1_x2_x119_x9/Y x1_x2_x84/X VGND VGND VPWR VPWR x1_x2_x8/CLK sky130_fd_sc_hd__and2_1
XFILLER_0_33_169 VPWR VGND VPWR VGND sky130_ef_sc_hd__decap_12
XFILLER_0_33_125 VGND VGND VPWR VPWR sky130_fd_sc_hd__decap_4
Xx1_x3_x3 net70 x1_x3_x3/D net67 VGND VGND VPWR VPWR x1_x3_x4/D sky130_fd_sc_hd__dfrtp_1
XFILLER_0_15_169 VGND VGND VPWR VPWR sky130_fd_sc_hd__decap_4
XFILLER_0_11_70 VGND VGND VPWR VPWR sky130_fd_sc_hd__fill_2
XFILLER_0_11_92 VPWR VGND VPWR VGND sky130_ef_sc_hd__decap_12
Xx1_x2_x11 x1_x2_x11/A VGND VGND VPWR VPWR x1_x2_x11/Y sky130_fd_sc_hd__inv_1
Xx1_x2_x77 x1_x2_x77/A VGND VGND VPWR VPWR x1_x2_x77/X sky130_fd_sc_hd__clkbuf_1
Xx1_x2_x33 net64 VGND VGND VPWR VPWR x1_x2_x33/Y sky130_fd_sc_hd__inv_1
Xx1_x2_x22 x1/cycle3 x1_x2_x22/D x1_x2_x21/X VGND VGND VPWR VPWR net44 sky130_fd_sc_hd__dfrtp_1
XFILLER_0_20_161 VPWR VGND VPWR VGND sky130_ef_sc_hd__decap_12
XFILLER_0_16_15 VGND VGND VPWR VPWR sky130_fd_sc_hd__fill_2
Xx1_x2_x88 x1_x2_x89/X VGND VGND VPWR VPWR x1_x2_x88/X sky130_fd_sc_hd__clkbuf_1
XFILLER_0_12_139 VGND VGND VPWR VPWR sky130_fd_sc_hd__fill_1
Xx1_x2_x44 x1_x2_x54/CLK net61 net52 VGND VGND VPWR VPWR net22 sky130_fd_sc_hd__dfstp_1
Xx1_x2_x55 x1_x2_x67/CLK net61 net52 VGND VGND VPWR VPWR net23 sky130_fd_sc_hd__dfstp_1
Xx1_x2_x99 x1_x1_x8/B net62 VGND VGND VPWR VPWR x1_x2_x99/X sky130_fd_sc_hd__xor2_1
XTAP_TAPCELL_ROW_6_96 VGND VPWR sky130_fd_sc_hd__tapvpwrvgnd_1
Xoutput39 net39 VGND VGND VPWR VPWR sw_p6 sky130_fd_sc_hd__clkbuf_4
Xoutput17 net17 VGND VGND VPWR VPWR sw_n1 sky130_fd_sc_hd__buf_2
Xoutput28 net28 VGND VGND VPWR VPWR sw_n_sp4 sky130_fd_sc_hd__buf_2
XFILLER_0_7_111 VGND VGND VPWR VPWR sky130_fd_sc_hd__fill_1
XTAP_TAPCELL_ROW_26_167 VGND VPWR sky130_fd_sc_hd__tapvpwrvgnd_1
XFILLER_0_27_69 VGND VGND VPWR VPWR sky130_fd_sc_hd__decap_6
Xx1_x2_x35_x1 x1_x2_x86/Q x1_x2_x88/X VGND VGND VPWR VPWR x1_x2_x32/A sky130_fd_sc_hd__and2_0
XFILLER_0_16_3 VPWR VGND VPWR VGND sky130_ef_sc_hd__decap_12
XFILLER_0_4_169 VPWR VGND VPWR VGND sky130_ef_sc_hd__decap_12
XFILLER_0_7_57 VGND VGND VPWR VPWR sky130_fd_sc_hd__decap_3
XTAP_TAPCELL_ROW_14_126 VGND VPWR sky130_fd_sc_hd__tapvpwrvgnd_1
XFILLER_0_1_139 VPWR VGND VPWR VGND sky130_ef_sc_hd__decap_12
XTAP_TAPCELL_ROW_3_86 VGND VPWR sky130_fd_sc_hd__tapvpwrvgnd_1
XFILLER_0_0_161 VGND VGND VPWR VPWR sky130_fd_sc_hd__fill_2
XFILLER_0_19_15 VPWR VGND VPWR VGND sky130_ef_sc_hd__decap_12
Xfanout63 x1_x6/X VGND VGND VPWR VPWR net63 sky130_fd_sc_hd__buf_2
Xfanout52 net53 VGND VGND VPWR VPWR net52 sky130_fd_sc_hd__clkbuf_4
XTAP_TAPCELL_ROW_0_76 VGND VPWR sky130_fd_sc_hd__tapvpwrvgnd_1
XFILLER_0_27_189 VGND VGND VPWR VPWR sky130_fd_sc_hd__fill_1
XFILLER_0_27_167 VGND VGND VPWR VPWR sky130_fd_sc_hd__fill_1
Xx1_x5 x1_x5/A x1_x5/B VGND VGND VPWR VPWR x1_x5/Y sky130_fd_sc_hd__xnor2_1
Xx1_x3_x4 net70 x1_x3_x4/D net67 VGND VGND VPWR VPWR x1_x3_x5/D sky130_fd_sc_hd__dfrtp_1
XFILLER_0_18_167 VGND VGND VPWR VPWR sky130_fd_sc_hd__decap_8
XFILLER_0_5_90 VGND VGND VPWR VPWR sky130_fd_sc_hd__fill_2
XFILLER_0_24_137 VGND VGND VPWR VPWR sky130_fd_sc_hd__decap_3
XFILLER_0_15_137 VGND VGND VPWR VPWR sky130_fd_sc_hd__fill_1
Xx1_x2_x34 net65 VGND VGND VPWR VPWR x1_x2_x34/Y sky130_fd_sc_hd__inv_1
Xx1_x2_x12 net65 VGND VGND VPWR VPWR x1_x2_x3/D sky130_fd_sc_hd__inv_1
XFILLER_0_32_15 VPWR VGND VPWR VGND sky130_ef_sc_hd__decap_12
Xx1_x2_x67 x1_x2_x67/CLK x1_x2_x69/Y net56 VGND VGND VPWR VPWR net40 sky130_fd_sc_hd__dfstp_1
Xx1_x2_x78 x1/cycle1 x1_x2_x79/X net56 VGND VGND VPWR VPWR x1_x2_x78/Q sky130_fd_sc_hd__dfrtp_1
Xx1_x2_x45 net66 VGND VGND VPWR VPWR x1_x2_x45/Y sky130_fd_sc_hd__inv_1
Xx1_x2_x23 x1/cycle3 net63 x1_x2_x31/X VGND VGND VPWR VPWR net28 sky130_fd_sc_hd__dfrtp_1
XFILLER_0_16_49 VGND VGND VPWR VPWR sky130_fd_sc_hd__decap_3
Xx1_x2_x89 x1/cycle5 VGND VGND VPWR VPWR x1_x2_x89/X sky130_fd_sc_hd__clkbuf_1
Xx1_x2_x56 x1_x2_x56/A VGND VGND VPWR VPWR x1_x2_x56/Y sky130_fd_sc_hd__inv_1
XTAP_TAPCELL_ROW_6_97 VGND VPWR sky130_fd_sc_hd__tapvpwrvgnd_1
XPHY_EDGE_ROW_27_Left_63 VGND VGND VPWR VPWR sky130_fd_sc_hd__decap_3
XFILLER_0_22_81 VGND VGND VPWR VPWR sky130_fd_sc_hd__decap_3
XFILLER_0_20_195 VGND VGND VPWR VPWR sky130_fd_sc_hd__fill_1
XFILLER_0_20_173 VGND VGND VPWR VPWR sky130_fd_sc_hd__fill_2
XFILLER_0_11_140 VGND VGND VPWR VPWR sky130_fd_sc_hd__fill_1
Xoutput18 net18 VGND VGND VPWR VPWR sw_n2 sky130_fd_sc_hd__buf_2
Xoutput29 net29 VGND VGND VPWR VPWR sw_n_sp5 sky130_fd_sc_hd__buf_2
XFILLER_0_7_167 VGND VGND VPWR VPWR sky130_fd_sc_hd__fill_1
XPHY_EDGE_ROW_11_Left_47 VGND VGND VPWR VPWR sky130_fd_sc_hd__decap_3
XTAP_TAPCELL_ROW_26_168 VGND VPWR sky130_fd_sc_hd__tapvpwrvgnd_1
XTAP_TAPCELL_ROW_17_135 VGND VPWR sky130_fd_sc_hd__tapvpwrvgnd_1
XFILLER_0_17_81 VPWR VGND VPWR VGND sky130_ef_sc_hd__decap_12
XFILLER_0_3_181 VGND VGND VPWR VPWR sky130_fd_sc_hd__decap_8
XPHY_EDGE_ROW_5_Right_5 VGND VGND VPWR VPWR sky130_fd_sc_hd__decap_3
XTAP_TAPCELL_ROW_8_103 VGND VPWR sky130_fd_sc_hd__tapvpwrvgnd_1
XTAP_TAPCELL_ROW_14_127 VGND VPWR sky130_fd_sc_hd__tapvpwrvgnd_1
XTAP_TAPCELL_ROW_3_87 VGND VPWR sky130_fd_sc_hd__tapvpwrvgnd_1
Xx1_x2_x119_x1 x1_x2_x121/Q x1_x2_x84/X VGND VGND VPWR VPWR x1_x2_x29/A sky130_fd_sc_hd__and2_0
XPHY_EDGE_ROW_14_Left_50 VGND VGND VPWR VPWR sky130_fd_sc_hd__decap_3
XFILLER_0_0_195 VGND VGND VPWR VPWR sky130_fd_sc_hd__fill_1
XFILLER_0_14_71 VGND VGND VPWR VPWR sky130_fd_sc_hd__fill_1
XFILLER_0_4_15 VPWR VGND VPWR VGND sky130_ef_sc_hd__decap_12
XFILLER_0_4_37 VGND VGND VPWR VPWR sky130_fd_sc_hd__decap_3
XFILLER_0_4_48 VPWR VGND VPWR VGND sky130_ef_sc_hd__decap_12
Xfanout64 net66 VGND VGND VPWR VPWR net64 sky130_fd_sc_hd__buf_2
XFILLER_0_19_27 VPWR VGND VPWR VGND sky130_ef_sc_hd__decap_12
Xfanout53 net57 VGND VGND VPWR VPWR net53 sky130_fd_sc_hd__clkbuf_2
XFILLER_0_35_15 VPWR VGND VPWR VGND sky130_ef_sc_hd__decap_12
XFILLER_0_27_135 VGND VGND VPWR VPWR sky130_fd_sc_hd__fill_1
Xx1_x6 x1_x9/X VGND VGND VPWR VPWR x1_x6/X sky130_fd_sc_hd__buf_16
XTAP_TAPCELL_ROW_0_77 VGND VPWR sky130_fd_sc_hd__tapvpwrvgnd_1
XFILLER_0_26_190 VGND VGND VPWR VPWR sky130_fd_sc_hd__decap_6
XFILLER_0_18_135 VGND VGND VPWR VPWR sky130_fd_sc_hd__decap_4
Xx1_x3_x5 net70 x1_x3_x5/D net67 VGND VGND VPWR VPWR x1_x3_x6/D sky130_fd_sc_hd__dfrtp_1
XFILLER_0_24_105 VGND VGND VPWR VPWR sky130_fd_sc_hd__decap_3
XFILLER_0_32_27 VGND VGND VPWR VPWR sky130_fd_sc_hd__fill_1
Xx1_x2_x13 x1_x2_x14/Y net55 VGND VGND VPWR VPWR x1_x2_x13/X sky130_fd_sc_hd__and2_1
XTAP_TAPCELL_ROW_29_177 VGND VPWR sky130_fd_sc_hd__tapvpwrvgnd_1